Networks/RuralDupli/RuralDupli_LinesLaterals1.txt
New Line.Feeder1.1      Bus1=Main_Busbar Bus2=1_1       Length=1    units=m Linecode=Line_185
New Line.Feeder1.2 Bus1=1_1   Bus2=1_2   Length=1    units=m Linecode=Line_185
New Line.Feeder1.3 Bus1=1_2   Bus2=1_3   Length=1    units=m Linecode=Line_185
New Line.Feeder1.4 Bus1=1_3   Bus2=1_4   Length=1    units=m Linecode=Line_185
New Line.Feeder1.5 Bus1=1_4   Bus2=1_5   Length=1    units=m Linecode=Line_185
New Line.Feeder1.6 Bus1=1_5   Bus2=1_6   Length=1    units=m Linecode=Line_185
New Line.Feeder1.7 Bus1=1_6   Bus2=1_7   Length=1    units=m Linecode=Line_185
New Line.Feeder1.8 Bus1=1_7   Bus2=1_8   Length=1    units=m Linecode=Line_185
New Line.Feeder1.9 Bus1=1_8   Bus2=1_9   Length=1    units=m Linecode=Line_185
New Line.Feeder1.10 Bus1=1_9   Bus2=1_10   Length=1    units=m Linecode=Line_185
New Line.Feeder1.11 Bus1=1_10   Bus2=1_11   Length=1    units=m Linecode=Line_185
New Line.Feeder1.12 Bus1=1_11   Bus2=1_12   Length=1    units=m Linecode=Line_185
New Line.Feeder1.13 Bus1=1_12   Bus2=1_13   Length=1    units=m Linecode=Line_185
New Line.Feeder1.14 Bus1=1_13   Bus2=1_14   Length=1    units=m Linecode=Line_185
New Line.Feeder1.15 Bus1=1_14   Bus2=1_15   Length=1    units=m Linecode=Line_185
New Line.Feeder1.16 Bus1=1_15   Bus2=1_16   Length=1    units=m Linecode=Line_185
New Line.Feeder1.17 Bus1=1_16   Bus2=1_17   Length=1    units=m Linecode=Line_185
New Line.Feeder1.18 Bus1=1_17   Bus2=1_18   Length=1    units=m Linecode=Line_185
New Line.Feeder1.19 Bus1=1_18   Bus2=1_19   Length=1    units=m Linecode=Line_185
New Line.Feeder1.20 Bus1=1_19   Bus2=1_20   Length=1    units=m Linecode=Line_185
New Line.Feeder1.21 Bus1=1_20   Bus2=1_21   Length=1    units=m Linecode=Line_185
New Line.Feeder1.22 Bus1=1_21   Bus2=1_22   Length=1    units=m Linecode=Line_185
New Line.Feeder1.23 Bus1=1_22   Bus2=1_23   Length=1    units=m Linecode=Line_185
New Line.Feeder1.24 Bus1=1_23   Bus2=1_24   Length=1    units=m Linecode=Line_185
New Line.Feeder1.25 Bus1=1_24   Bus2=1_25   Length=1    units=m Linecode=Line_185
New Line.Feeder1.26 Bus1=1_25   Bus2=1_26   Length=1    units=m Linecode=Line_185
New Line.Feeder1.27 Bus1=1_26   Bus2=1_27   Length=1    units=m Linecode=Line_185
New Line.Feeder1.28 Bus1=1_27   Bus2=1_28   Length=1    units=m Linecode=Line_185
New Line.Feeder1.29 Bus1=1_28   Bus2=1_29   Length=1    units=m Linecode=Line_185
New Line.Feeder1.30 Bus1=1_29   Bus2=1_30   Length=1    units=m Linecode=Line_185
New Line.Feeder1.31 Bus1=1_30   Bus2=1_31   Length=1    units=m Linecode=Line_185
New Line.Feeder1.32 Bus1=1_31   Bus2=1_32   Length=1    units=m Linecode=Line_185
New Line.Feeder1.33 Bus1=1_32   Bus2=1_33   Length=1    units=m Linecode=Line_185
New Line.Feeder1.34 Bus1=1_33   Bus2=1_34   Length=1    units=m Linecode=Line_185
New Line.Feeder1.35 Bus1=1_34   Bus2=1_35   Length=1    units=m Linecode=Line_185
New Line.Feeder1.36 Bus1=1_35   Bus2=1_36   Length=1    units=m Linecode=Line_185
New Line.Feeder1.37 Bus1=1_36   Bus2=1_37   Length=1    units=m Linecode=Line_185
New Line.Feeder1.38 Bus1=1_37   Bus2=1_38   Length=1    units=m Linecode=Line_185
New Line.Feeder1.39 Bus1=1_38   Bus2=1_39   Length=1    units=m Linecode=Line_185
New Line.Feeder1.40 Bus1=1_39   Bus2=1_40   Length=1    units=m Linecode=Line_185
New Line.Feeder1.41 Bus1=1_40   Bus2=1_41   Length=1    units=m Linecode=Line_185
New Line.Feeder1.42 Bus1=1_41   Bus2=1_42   Length=1    units=m Linecode=Line_185
New Line.Feeder1.43 Bus1=1_42   Bus2=1_43   Length=1    units=m Linecode=Line_185
New Line.Feeder1.44 Bus1=1_43   Bus2=1_44   Length=1    units=m Linecode=Line_185
New Line.Feeder1.45 Bus1=1_44   Bus2=1_45   Length=1    units=m Linecode=Line_185
New Line.Feeder1.46 Bus1=1_45   Bus2=1_46   Length=1    units=m Linecode=Line_185
New Line.Feeder1.47 Bus1=1_46   Bus2=1_47   Length=1    units=m Linecode=Line_185
New Line.Feeder1.48 Bus1=1_47   Bus2=1_48   Length=1    units=m Linecode=Line_185
New Line.Feeder1.49 Bus1=1_48   Bus2=1_49   Length=1    units=m Linecode=Line_185
New Line.Feeder1.50 Bus1=1_49   Bus2=1_50   Length=1    units=m Linecode=Line_185
New Line.Feeder1.51 Bus1=1_50   Bus2=1_51   Length=1    units=m Linecode=Line_185
New Line.Lateral1_start_1   Bus1=1_50   Bus2=1_52   Length=1    units=m Linecode=Line_95
New Line.Lateral1.53    Bus1=1_52   Bus2=1_53   Length=1    units=m Linecode=Line_95
New Line.Lateral1.54    Bus1=1_53   Bus2=1_54   Length=1    units=m Linecode=Line_95
New Line.Lateral1.55    Bus1=1_54   Bus2=1_55   Length=1    units=m Linecode=Line_95
New Line.Lateral1.56    Bus1=1_55   Bus2=1_56   Length=1    units=m Linecode=Line_95
New Line.Lateral1.57    Bus1=1_56   Bus2=1_57   Length=1    units=m Linecode=Line_95
New Line.Lateral1.58    Bus1=1_57   Bus2=1_58   Length=1    units=m Linecode=Line_95
New Line.Lateral1.59    Bus1=1_58   Bus2=1_59   Length=1    units=m Linecode=Line_95
New Line.Lateral1.60    Bus1=1_59   Bus2=1_60   Length=1    units=m Linecode=Line_95
New Line.Lateral1.61    Bus1=1_60   Bus2=1_61   Length=1    units=m Linecode=Line_95
New Line.Lateral1.62    Bus1=1_61   Bus2=1_62   Length=1    units=m Linecode=Line_95
New Line.Lateral1.63    Bus1=1_62   Bus2=1_63   Length=1    units=m Linecode=Line_95
New Line.Lateral1.64    Bus1=1_63   Bus2=1_64   Length=1    units=m Linecode=Line_95
New Line.Lateral1.65    Bus1=1_64   Bus2=1_65   Length=1    units=m Linecode=Line_95
New Line.Lateral1.66    Bus1=1_65   Bus2=1_66   Length=1    units=m Linecode=Line_95
New Line.Lateral1.67    Bus1=1_66   Bus2=1_67   Length=1    units=m Linecode=Line_95
New Line.Lateral1.68    Bus1=1_67   Bus2=1_68   Length=1    units=m Linecode=Line_95
New Line.Lateral1.69    Bus1=1_68   Bus2=1_69   Length=1    units=m Linecode=Line_95
New Line.Lateral1.70    Bus1=1_69   Bus2=1_70   Length=1    units=m Linecode=Line_95
New Line.Lateral1.71    Bus1=1_70   Bus2=1_71   Length=1    units=m Linecode=Line_95
New Line.Lateral1.72    Bus1=1_71   Bus2=1_72   Length=1    units=m Linecode=Line_95
New Line.Lateral1.73    Bus1=1_72   Bus2=1_73   Length=1    units=m Linecode=Line_95
New Line.Lateral1.74    Bus1=1_73   Bus2=1_74   Length=1    units=m Linecode=Line_95
New Line.Lateral1.75    Bus1=1_74   Bus2=1_75   Length=1    units=m Linecode=Line_95
New Line.Lateral1.76    Bus1=1_75   Bus2=1_76   Length=1    units=m Linecode=Line_95
New Line.Lateral1.77    Bus1=1_76   Bus2=1_77   Length=1    units=m Linecode=Line_95
New Line.Lateral1.78    Bus1=1_77   Bus2=1_78   Length=1    units=m Linecode=Line_95
New Line.Lateral1.79    Bus1=1_78   Bus2=1_79   Length=1    units=m Linecode=Line_95
New Line.Lateral1.80    Bus1=1_79   Bus2=1_80   Length=1    units=m Linecode=Line_95
New Line.Lateral1.81    Bus1=1_80   Bus2=1_81   Length=1    units=m Linecode=Line_95
New Line.Lateral1.82    Bus1=1_81   Bus2=1_82   Length=1    units=m Linecode=Line_95
New Line.Lateral1.83    Bus1=1_82   Bus2=1_83   Length=1    units=m Linecode=Line_95
New Line.Lateral1.84    Bus1=1_83   Bus2=1_84   Length=1    units=m Linecode=Line_95
New Line.Lateral1.85    Bus1=1_84   Bus2=1_85   Length=1    units=m Linecode=Line_95
New Line.Lateral1.86    Bus1=1_85   Bus2=1_86   Length=1    units=m Linecode=Line_95
New Line.Lateral1.87    Bus1=1_86   Bus2=1_87   Length=1    units=m Linecode=Line_95
New Line.Lateral1.88    Bus1=1_87   Bus2=1_88   Length=1    units=m Linecode=Line_95
New Line.Lateral1.89    Bus1=1_88   Bus2=1_89   Length=1    units=m Linecode=Line_95
New Line.Lateral1.90    Bus1=1_89   Bus2=1_90   Length=1    units=m Linecode=Line_95
New Line.Lateral1.91    Bus1=1_90   Bus2=1_91   Length=1    units=m Linecode=Line_95
New Line.Lateral1.92    Bus1=1_91   Bus2=1_92   Length=1    units=m Linecode=Line_95
New Line.Lateral1.93    Bus1=1_92   Bus2=1_93   Length=1    units=m Linecode=Line_95
New Line.Lateral1.94    Bus1=1_93   Bus2=1_94   Length=1    units=m Linecode=Line_95
New Line.Lateral1.95    Bus1=1_94   Bus2=1_95   Length=1    units=m Linecode=Line_95
New Line.Lateral1.96    Bus1=1_95   Bus2=1_96   Length=1    units=m Linecode=Line_95
New Line.Lateral1.97    Bus1=1_96   Bus2=1_97   Length=1    units=m Linecode=Line_95
New Line.Lateral1.98    Bus1=1_97   Bus2=1_98   Length=1    units=m Linecode=Line_95
New Line.Lateral1.99    Bus1=1_98   Bus2=1_99   Length=1    units=m Linecode=Line_95
New Line.Lateral1.100    Bus1=1_99   Bus2=1_100   Length=1    units=m Linecode=Line_95
New Line.Lateral1.101    Bus1=1_100   Bus2=1_101   Length=1    units=m Linecode=Line_95
New Line.Lateral1.102    Bus1=1_101   Bus2=1_102   Length=1    units=m Linecode=Line_95
New Line.Lateral1.103    Bus1=1_102   Bus2=1_103   Length=1    units=m Linecode=Line_95
New Line.Lateral1.104    Bus1=1_103   Bus2=1_104   Length=1    units=m Linecode=Line_95
New Line.Lateral1.105    Bus1=1_104   Bus2=1_105   Length=1    units=m Linecode=Line_95
New Line.Lateral1.106    Bus1=1_105   Bus2=1_106   Length=1    units=m Linecode=Line_95
New Line.Lateral1.107    Bus1=1_106   Bus2=1_107   Length=1    units=m Linecode=Line_95
New Line.Lateral1.108    Bus1=1_107   Bus2=1_108   Length=1    units=m Linecode=Line_95
New Line.Lateral1.109    Bus1=1_108   Bus2=1_109   Length=1    units=m Linecode=Line_95
New Line.Lateral1.110    Bus1=1_109   Bus2=1_110   Length=1    units=m Linecode=Line_95
New Line.Lateral1.111    Bus1=1_110   Bus2=1_111   Length=1    units=m Linecode=Line_95
New Line.Lateral1.112    Bus1=1_111   Bus2=1_112   Length=1    units=m Linecode=Line_95
New Line.Lateral1.113    Bus1=1_112   Bus2=1_113   Length=1    units=m Linecode=Line_95
New Line.Lateral1.114    Bus1=1_113   Bus2=1_114   Length=1    units=m Linecode=Line_95
New Line.Lateral1.115    Bus1=1_114   Bus2=1_115   Length=1    units=m Linecode=Line_95
New Line.Lateral1.116    Bus1=1_115   Bus2=1_116   Length=1    units=m Linecode=Line_95
New Line.Lateral1.117    Bus1=1_116   Bus2=1_117   Length=1    units=m Linecode=Line_95
New Line.Lateral1.118    Bus1=1_117   Bus2=1_118   Length=1    units=m Linecode=Line_95
New Line.Lateral1.119    Bus1=1_118   Bus2=1_119   Length=1    units=m Linecode=Line_95
New Line.Lateral1.120    Bus1=1_119   Bus2=1_120   Length=1    units=m Linecode=Line_95
New Line.Lateral1.121    Bus1=1_120   Bus2=1_121   Length=1    units=m Linecode=Line_95
New Line.Lateral1.122    Bus1=1_121   Bus2=1_122   Length=1    units=m Linecode=Line_95
New Line.Lateral1.123    Bus1=1_122   Bus2=1_123   Length=1    units=m Linecode=Line_95
New Line.Lateral1.124    Bus1=1_123   Bus2=1_124   Length=1    units=m Linecode=Line_95
New Line.Lateral1.125    Bus1=1_124   Bus2=1_125   Length=1    units=m Linecode=Line_95
New Line.Lateral1.126    Bus1=1_125   Bus2=1_126   Length=1    units=m Linecode=Line_95
New Line.Lateral1.127    Bus1=1_126   Bus2=1_127   Length=1    units=m Linecode=Line_95
New Line.Lateral1.128    Bus1=1_127   Bus2=1_128   Length=1    units=m Linecode=Line_95
New Line.Lateral1.129    Bus1=1_128   Bus2=1_129   Length=1    units=m Linecode=Line_95
New Line.Lateral1.130    Bus1=1_129   Bus2=1_130   Length=1    units=m Linecode=Line_95
New Line.Lateral1.131    Bus1=1_130   Bus2=1_131   Length=1    units=m Linecode=Line_95
New Line.Lateral1.132    Bus1=1_131   Bus2=1_132   Length=1    units=m Linecode=Line_95
New Line.Lateral1.133    Bus1=1_132   Bus2=1_133   Length=1    units=m Linecode=Line_95
New Line.Lateral1.134    Bus1=1_133   Bus2=1_134   Length=1    units=m Linecode=Line_95
New Line.Lateral1.135    Bus1=1_134   Bus2=1_135   Length=1    units=m Linecode=Line_95
New Line.Lateral1.136    Bus1=1_135   Bus2=1_136   Length=1    units=m Linecode=Line_95
New Line.Lateral1.137    Bus1=1_136   Bus2=1_137   Length=1    units=m Linecode=Line_95
New Line.Lateral1.138    Bus1=1_137   Bus2=1_138   Length=1    units=m Linecode=Line_95
New Line.Lateral1.139    Bus1=1_138   Bus2=1_139   Length=1    units=m Linecode=Line_95
New Line.Lateral1.140    Bus1=1_139   Bus2=1_140   Length=1    units=m Linecode=Line_95
New Line.Lateral1.141    Bus1=1_140   Bus2=1_141   Length=1    units=m Linecode=Line_95
New Line.Lateral1.142    Bus1=1_141   Bus2=1_142   Length=1    units=m Linecode=Line_95
New Line.Lateral1.143    Bus1=1_142   Bus2=1_143   Length=1    units=m Linecode=Line_95
New Line.Lateral1.144    Bus1=1_143   Bus2=1_144   Length=1    units=m Linecode=Line_95
New Line.Lateral1.145    Bus1=1_144   Bus2=1_145   Length=1    units=m Linecode=Line_95
New Line.Lateral1.146    Bus1=1_145   Bus2=1_146   Length=1    units=m Linecode=Line_95
New Line.Lateral1.147    Bus1=1_146   Bus2=1_147   Length=1    units=m Linecode=Line_95
New Line.Lateral1.148    Bus1=1_147   Bus2=1_148   Length=1    units=m Linecode=Line_95
New Line.Lateral1.149    Bus1=1_148   Bus2=1_149   Length=1    units=m Linecode=Line_95
New Line.Lateral1.150    Bus1=1_149   Bus2=1_150   Length=1    units=m Linecode=Line_95
New Line.Lateral1.151    Bus1=1_150   Bus2=1_151   Length=1    units=m Linecode=Line_95
New Line.Lateral1.152    Bus1=1_151   Bus2=1_152   Length=1    units=m Linecode=Line_95
New Line.Lateral1.153    Bus1=1_152   Bus2=1_153   Length=1    units=m Linecode=Line_95
New Line.Lateral1.154    Bus1=1_153   Bus2=1_154   Length=1    units=m Linecode=Line_95
New Line.Lateral1.155    Bus1=1_154   Bus2=1_155   Length=1    units=m Linecode=Line_95
New Line.Lateral1.156    Bus1=1_155   Bus2=1_156   Length=1    units=m Linecode=Line_95
New Line.Lateral1.157    Bus1=1_156   Bus2=1_157   Length=1    units=m Linecode=Line_95
New Line.Lateral1.158    Bus1=1_157   Bus2=1_158   Length=1    units=m Linecode=Line_95
New Line.Lateral1.159    Bus1=1_158   Bus2=1_159   Length=1    units=m Linecode=Line_95
New Line.Lateral1.160    Bus1=1_159   Bus2=1_160   Length=1    units=m Linecode=Line_95
New Line.Lateral1.161    Bus1=1_160   Bus2=1_161   Length=1    units=m Linecode=Line_95
New Line.Lateral1.162    Bus1=1_161   Bus2=1_162   Length=1    units=m Linecode=Line_95
New Line.Lateral1.163    Bus1=1_162   Bus2=1_163   Length=1    units=m Linecode=Line_95
New Line.Lateral1.164    Bus1=1_163   Bus2=1_164   Length=1    units=m Linecode=Line_95
New Line.Lateral1.165    Bus1=1_164   Bus2=1_165   Length=1    units=m Linecode=Line_95
New Line.Lateral1.166    Bus1=1_165   Bus2=1_166   Length=1    units=m Linecode=Line_95
New Line.Lateral1.167    Bus1=1_166   Bus2=1_167   Length=1    units=m Linecode=Line_95
New Line.Lateral1.168    Bus1=1_167   Bus2=1_168   Length=1    units=m Linecode=Line_95
New Line.Lateral1.169    Bus1=1_168   Bus2=1_169   Length=1    units=m Linecode=Line_95
New Line.Lateral1.170    Bus1=1_169   Bus2=1_170   Length=1    units=m Linecode=Line_95
New Line.Lateral1.171    Bus1=1_170   Bus2=1_171   Length=1    units=m Linecode=Line_95
New Line.Lateral1.172    Bus1=1_171   Bus2=1_172   Length=1    units=m Linecode=Line_95
New Line.Lateral1.173    Bus1=1_172   Bus2=1_173   Length=1    units=m Linecode=Line_95
New Line.Lateral1.174    Bus1=1_173   Bus2=1_174   Length=1    units=m Linecode=Line_95
New Line.Lateral1.175    Bus1=1_174   Bus2=1_175   Length=1    units=m Linecode=Line_95
New Line.Lateral1.176    Bus1=1_175   Bus2=1_176   Length=1    units=m Linecode=Line_95
New Line.Lateral1.177    Bus1=1_176   Bus2=1_177   Length=1    units=m Linecode=Line_95
New Line.Lateral1.178    Bus1=1_177   Bus2=1_178   Length=1    units=m Linecode=Line_95
New Line.Lateral1.179    Bus1=1_178   Bus2=1_179   Length=1    units=m Linecode=Line_95
New Line.Lateral1.180    Bus1=1_179   Bus2=1_180   Length=1    units=m Linecode=Line_95
New Line.Lateral1.181    Bus1=1_180   Bus2=1_181   Length=1    units=m Linecode=Line_95
New Line.Lateral1.182    Bus1=1_181   Bus2=1_182   Length=1    units=m Linecode=Line_95
New Line.Lateral1.183    Bus1=1_182   Bus2=1_183   Length=1    units=m Linecode=Line_95
New Line.Lateral1.184    Bus1=1_183   Bus2=1_184   Length=1    units=m Linecode=Line_95
New Line.Lateral1.185    Bus1=1_184   Bus2=1_185   Length=1    units=m Linecode=Line_95
New Line.Lateral1.186    Bus1=1_185   Bus2=1_186   Length=1    units=m Linecode=Line_95
New Line.Lateral1.187    Bus1=1_186   Bus2=1_187   Length=1    units=m Linecode=Line_95
New Line.Lateral1.188    Bus1=1_187   Bus2=1_188   Length=1    units=m Linecode=Line_95
New Line.Lateral1.189    Bus1=1_188   Bus2=1_189   Length=1    units=m Linecode=Line_95
New Line.Lateral1.190    Bus1=1_189   Bus2=1_190   Length=1    units=m Linecode=Line_95
New Line.Lateral1.191    Bus1=1_190   Bus2=1_191   Length=1    units=m Linecode=Line_95
New Line.Lateral1.192    Bus1=1_191   Bus2=1_192   Length=1    units=m Linecode=Line_95
New Line.Lateral1.193    Bus1=1_192   Bus2=1_193   Length=1    units=m Linecode=Line_95
New Line.Lateral1.194    Bus1=1_193   Bus2=1_194   Length=1    units=m Linecode=Line_95
New Line.Lateral1.195    Bus1=1_194   Bus2=1_195   Length=1    units=m Linecode=Line_95
New Line.Lateral1.196    Bus1=1_195   Bus2=1_196   Length=1    units=m Linecode=Line_95
New Line.Lateral1.197    Bus1=1_196   Bus2=1_197   Length=1    units=m Linecode=Line_95
New Line.Lateral1.198    Bus1=1_197   Bus2=1_198   Length=1    units=m Linecode=Line_95
New Line.Lateral1.199    Bus1=1_198   Bus2=1_199   Length=1    units=m Linecode=Line_95
New Line.Lateral1.200    Bus1=1_199   Bus2=1_200   Length=1    units=m Linecode=Line_95
...
