Networks/RuralDupli/RuralDupli_LinesLaterals2.txt
New Line.Feeder2.1      Bus1=Main_Busbar Bus2=2_1       Length=1    units=m Linecode=Line_185
New Line.Feeder2.2 Bus1=2_1   Bus2=2_2   Length=1    units=m Linecode=Line_185
New Line.Feeder2.3 Bus1=2_2   Bus2=2_3   Length=1    units=m Linecode=Line_185
New Line.Feeder2.4 Bus1=2_3   Bus2=2_4   Length=1    units=m Linecode=Line_185
New Line.Feeder2.5 Bus1=2_4   Bus2=2_5   Length=1    units=m Linecode=Line_185
New Line.Feeder2.6 Bus1=2_5   Bus2=2_6   Length=1    units=m Linecode=Line_185
New Line.Feeder2.7 Bus1=2_6   Bus2=2_7   Length=1    units=m Linecode=Line_185
New Line.Feeder2.8 Bus1=2_7   Bus2=2_8   Length=1    units=m Linecode=Line_185
New Line.Feeder2.9 Bus1=2_8   Bus2=2_9   Length=1    units=m Linecode=Line_185
New Line.Feeder2.10 Bus1=2_9   Bus2=2_10   Length=1    units=m Linecode=Line_185
New Line.Feeder2.11 Bus1=2_10   Bus2=2_11   Length=1    units=m Linecode=Line_185
New Line.Feeder2.12 Bus1=2_11   Bus2=2_12   Length=1    units=m Linecode=Line_185
New Line.Feeder2.13 Bus1=2_12   Bus2=2_13   Length=1    units=m Linecode=Line_185
New Line.Feeder2.14 Bus1=2_13   Bus2=2_14   Length=1    units=m Linecode=Line_185
New Line.Feeder2.15 Bus1=2_14   Bus2=2_15   Length=1    units=m Linecode=Line_185
New Line.Feeder2.16 Bus1=2_15   Bus2=2_16   Length=1    units=m Linecode=Line_185
New Line.Feeder2.17 Bus1=2_16   Bus2=2_17   Length=1    units=m Linecode=Line_185
New Line.Feeder2.18 Bus1=2_17   Bus2=2_18   Length=1    units=m Linecode=Line_185
New Line.Feeder2.19 Bus1=2_18   Bus2=2_19   Length=1    units=m Linecode=Line_185
New Line.Feeder2.20 Bus1=2_19   Bus2=2_20   Length=1    units=m Linecode=Line_185
New Line.Feeder2.21 Bus1=2_20   Bus2=2_21   Length=1    units=m Linecode=Line_185
New Line.Feeder2.22 Bus1=2_21   Bus2=2_22   Length=1    units=m Linecode=Line_185
New Line.Feeder2.23 Bus1=2_22   Bus2=2_23   Length=1    units=m Linecode=Line_185
New Line.Feeder2.24 Bus1=2_23   Bus2=2_24   Length=1    units=m Linecode=Line_185
New Line.Feeder2.25 Bus1=2_24   Bus2=2_25   Length=1    units=m Linecode=Line_185
New Line.Feeder2.26 Bus1=2_25   Bus2=2_26   Length=1    units=m Linecode=Line_185
New Line.Feeder2.27 Bus1=2_26   Bus2=2_27   Length=1    units=m Linecode=Line_185
New Line.Feeder2.28 Bus1=2_27   Bus2=2_28   Length=1    units=m Linecode=Line_185
New Line.Feeder2.29 Bus1=2_28   Bus2=2_29   Length=1    units=m Linecode=Line_185
New Line.Feeder2.30 Bus1=2_29   Bus2=2_30   Length=1    units=m Linecode=Line_185
New Line.Feeder2.31 Bus1=2_30   Bus2=2_31   Length=1    units=m Linecode=Line_185
New Line.Feeder2.32 Bus1=2_31   Bus2=2_32   Length=1    units=m Linecode=Line_185
New Line.Feeder2.33 Bus1=2_32   Bus2=2_33   Length=1    units=m Linecode=Line_185
New Line.Feeder2.34 Bus1=2_33   Bus2=2_34   Length=1    units=m Linecode=Line_185
New Line.Feeder2.35 Bus1=2_34   Bus2=2_35   Length=1    units=m Linecode=Line_185
New Line.Feeder2.36 Bus1=2_35   Bus2=2_36   Length=1    units=m Linecode=Line_185
New Line.Feeder2.37 Bus1=2_36   Bus2=2_37   Length=1    units=m Linecode=Line_185
New Line.Feeder2.38 Bus1=2_37   Bus2=2_38   Length=1    units=m Linecode=Line_185
New Line.Feeder2.39 Bus1=2_38   Bus2=2_39   Length=1    units=m Linecode=Line_185
New Line.Feeder2.40 Bus1=2_39   Bus2=2_40   Length=1    units=m Linecode=Line_185
New Line.Feeder2.41 Bus1=2_40   Bus2=2_41   Length=1    units=m Linecode=Line_185
New Line.Feeder2.42 Bus1=2_41   Bus2=2_42   Length=1    units=m Linecode=Line_185
New Line.Feeder2.43 Bus1=2_42   Bus2=2_43   Length=1    units=m Linecode=Line_185
New Line.Feeder2.44 Bus1=2_43   Bus2=2_44   Length=1    units=m Linecode=Line_185
New Line.Feeder2.45 Bus1=2_44   Bus2=2_45   Length=1    units=m Linecode=Line_185
New Line.Feeder2.46 Bus1=2_45   Bus2=2_46   Length=1    units=m Linecode=Line_185
New Line.Feeder2.47 Bus1=2_46   Bus2=2_47   Length=1    units=m Linecode=Line_185
New Line.Feeder2.48 Bus1=2_47   Bus2=2_48   Length=1    units=m Linecode=Line_185
New Line.Feeder2.49 Bus1=2_48   Bus2=2_49   Length=1    units=m Linecode=Line_185
New Line.Feeder2.50 Bus1=2_49   Bus2=2_50   Length=1    units=m Linecode=Line_185
New Line.Feeder2.51 Bus1=2_50   Bus2=2_51   Length=1    units=m Linecode=Line_185
New Line.Lateral2_start_1   Bus1=2_50   Bus2=2_52   Length=1    units=m Linecode=Line_95
New Line.Lateral2.53    Bus1=2_52   Bus2=2_53   Length=1    units=m Linecode=Line_95
New Line.Lateral2.54    Bus1=2_53   Bus2=2_54   Length=1    units=m Linecode=Line_95
New Line.Lateral2.55    Bus1=2_54   Bus2=2_55   Length=1    units=m Linecode=Line_95
New Line.Lateral2.56    Bus1=2_55   Bus2=2_56   Length=1    units=m Linecode=Line_95
New Line.Lateral2.57    Bus1=2_56   Bus2=2_57   Length=1    units=m Linecode=Line_95
New Line.Lateral2.58    Bus1=2_57   Bus2=2_58   Length=1    units=m Linecode=Line_95
New Line.Lateral2.59    Bus1=2_58   Bus2=2_59   Length=1    units=m Linecode=Line_95
New Line.Lateral2.60    Bus1=2_59   Bus2=2_60   Length=1    units=m Linecode=Line_95
New Line.Lateral2.61    Bus1=2_60   Bus2=2_61   Length=1    units=m Linecode=Line_95
New Line.Lateral2.62    Bus1=2_61   Bus2=2_62   Length=1    units=m Linecode=Line_95
New Line.Lateral2.63    Bus1=2_62   Bus2=2_63   Length=1    units=m Linecode=Line_95
New Line.Lateral2.64    Bus1=2_63   Bus2=2_64   Length=1    units=m Linecode=Line_95
New Line.Lateral2.65    Bus1=2_64   Bus2=2_65   Length=1    units=m Linecode=Line_95
New Line.Lateral2.66    Bus1=2_65   Bus2=2_66   Length=1    units=m Linecode=Line_95
New Line.Lateral2.67    Bus1=2_66   Bus2=2_67   Length=1    units=m Linecode=Line_95
New Line.Lateral2.68    Bus1=2_67   Bus2=2_68   Length=1    units=m Linecode=Line_95
New Line.Lateral2.69    Bus1=2_68   Bus2=2_69   Length=1    units=m Linecode=Line_95
New Line.Lateral2.70    Bus1=2_69   Bus2=2_70   Length=1    units=m Linecode=Line_95
New Line.Lateral2.71    Bus1=2_70   Bus2=2_71   Length=1    units=m Linecode=Line_95
New Line.Lateral2.72    Bus1=2_71   Bus2=2_72   Length=1    units=m Linecode=Line_95
New Line.Lateral2.73    Bus1=2_72   Bus2=2_73   Length=1    units=m Linecode=Line_95
New Line.Lateral2.74    Bus1=2_73   Bus2=2_74   Length=1    units=m Linecode=Line_95
New Line.Lateral2.75    Bus1=2_74   Bus2=2_75   Length=1    units=m Linecode=Line_95
New Line.Lateral2.76    Bus1=2_75   Bus2=2_76   Length=1    units=m Linecode=Line_95
New Line.Lateral2.77    Bus1=2_76   Bus2=2_77   Length=1    units=m Linecode=Line_95
New Line.Lateral2.78    Bus1=2_77   Bus2=2_78   Length=1    units=m Linecode=Line_95
New Line.Lateral2.79    Bus1=2_78   Bus2=2_79   Length=1    units=m Linecode=Line_95
New Line.Lateral2.80    Bus1=2_79   Bus2=2_80   Length=1    units=m Linecode=Line_95
New Line.Lateral2.81    Bus1=2_80   Bus2=2_81   Length=1    units=m Linecode=Line_95
New Line.Lateral2.82    Bus1=2_81   Bus2=2_82   Length=1    units=m Linecode=Line_95
New Line.Lateral2.83    Bus1=2_82   Bus2=2_83   Length=1    units=m Linecode=Line_95
New Line.Lateral2.84    Bus1=2_83   Bus2=2_84   Length=1    units=m Linecode=Line_95
New Line.Lateral2.85    Bus1=2_84   Bus2=2_85   Length=1    units=m Linecode=Line_95
New Line.Lateral2.86    Bus1=2_85   Bus2=2_86   Length=1    units=m Linecode=Line_95
New Line.Lateral2.87    Bus1=2_86   Bus2=2_87   Length=1    units=m Linecode=Line_95
New Line.Lateral2.88    Bus1=2_87   Bus2=2_88   Length=1    units=m Linecode=Line_95
New Line.Lateral2.89    Bus1=2_88   Bus2=2_89   Length=1    units=m Linecode=Line_95
New Line.Lateral2.90    Bus1=2_89   Bus2=2_90   Length=1    units=m Linecode=Line_95
New Line.Lateral2.91    Bus1=2_90   Bus2=2_91   Length=1    units=m Linecode=Line_95
New Line.Lateral2.92    Bus1=2_91   Bus2=2_92   Length=1    units=m Linecode=Line_95
New Line.Lateral2.93    Bus1=2_92   Bus2=2_93   Length=1    units=m Linecode=Line_95
New Line.Lateral2.94    Bus1=2_93   Bus2=2_94   Length=1    units=m Linecode=Line_95
New Line.Lateral2.95    Bus1=2_94   Bus2=2_95   Length=1    units=m Linecode=Line_95
New Line.Lateral2.96    Bus1=2_95   Bus2=2_96   Length=1    units=m Linecode=Line_95
New Line.Lateral2.97    Bus1=2_96   Bus2=2_97   Length=1    units=m Linecode=Line_95
New Line.Lateral2.98    Bus1=2_97   Bus2=2_98   Length=1    units=m Linecode=Line_95
New Line.Lateral2.99    Bus1=2_98   Bus2=2_99   Length=1    units=m Linecode=Line_95
New Line.Lateral2.100    Bus1=2_99   Bus2=2_100   Length=1    units=m Linecode=Line_95
New Line.Lateral2.101    Bus1=2_100   Bus2=2_101   Length=1    units=m Linecode=Line_95
New Line.Lateral2.102    Bus1=2_101   Bus2=2_102   Length=1    units=m Linecode=Line_95
New Line.Lateral2.103    Bus1=2_102   Bus2=2_103   Length=1    units=m Linecode=Line_95
New Line.Lateral2.104    Bus1=2_103   Bus2=2_104   Length=1    units=m Linecode=Line_95
New Line.Lateral2.105    Bus1=2_104   Bus2=2_105   Length=1    units=m Linecode=Line_95
New Line.Lateral2.106    Bus1=2_105   Bus2=2_106   Length=1    units=m Linecode=Line_95
New Line.Lateral2.107    Bus1=2_106   Bus2=2_107   Length=1    units=m Linecode=Line_95
New Line.Lateral2.108    Bus1=2_107   Bus2=2_108   Length=1    units=m Linecode=Line_95
New Line.Lateral2.109    Bus1=2_108   Bus2=2_109   Length=1    units=m Linecode=Line_95
New Line.Lateral2.110    Bus1=2_109   Bus2=2_110   Length=1    units=m Linecode=Line_95
New Line.Lateral2.111    Bus1=2_110   Bus2=2_111   Length=1    units=m Linecode=Line_95
New Line.Lateral2.112    Bus1=2_111   Bus2=2_112   Length=1    units=m Linecode=Line_95
New Line.Lateral2.113    Bus1=2_112   Bus2=2_113   Length=1    units=m Linecode=Line_95
New Line.Lateral2.114    Bus1=2_113   Bus2=2_114   Length=1    units=m Linecode=Line_95
New Line.Lateral2.115    Bus1=2_114   Bus2=2_115   Length=1    units=m Linecode=Line_95
New Line.Lateral2.116    Bus1=2_115   Bus2=2_116   Length=1    units=m Linecode=Line_95
New Line.Lateral2.117    Bus1=2_116   Bus2=2_117   Length=1    units=m Linecode=Line_95
New Line.Lateral2.118    Bus1=2_117   Bus2=2_118   Length=1    units=m Linecode=Line_95
New Line.Lateral2.119    Bus1=2_118   Bus2=2_119   Length=1    units=m Linecode=Line_95
New Line.Lateral2.120    Bus1=2_119   Bus2=2_120   Length=1    units=m Linecode=Line_95
New Line.Lateral2.121    Bus1=2_120   Bus2=2_121   Length=1    units=m Linecode=Line_95
New Line.Lateral2.122    Bus1=2_121   Bus2=2_122   Length=1    units=m Linecode=Line_95
New Line.Lateral2.123    Bus1=2_122   Bus2=2_123   Length=1    units=m Linecode=Line_95
New Line.Lateral2.124    Bus1=2_123   Bus2=2_124   Length=1    units=m Linecode=Line_95
New Line.Lateral2.125    Bus1=2_124   Bus2=2_125   Length=1    units=m Linecode=Line_95
New Line.Lateral2.126    Bus1=2_125   Bus2=2_126   Length=1    units=m Linecode=Line_95
New Line.Lateral2.127    Bus1=2_126   Bus2=2_127   Length=1    units=m Linecode=Line_95
New Line.Lateral2.128    Bus1=2_127   Bus2=2_128   Length=1    units=m Linecode=Line_95
New Line.Lateral2.129    Bus1=2_128   Bus2=2_129   Length=1    units=m Linecode=Line_95
New Line.Lateral2.130    Bus1=2_129   Bus2=2_130   Length=1    units=m Linecode=Line_95
New Line.Lateral2.131    Bus1=2_130   Bus2=2_131   Length=1    units=m Linecode=Line_95
New Line.Lateral2.132    Bus1=2_131   Bus2=2_132   Length=1    units=m Linecode=Line_95
New Line.Lateral2.133    Bus1=2_132   Bus2=2_133   Length=1    units=m Linecode=Line_95
New Line.Lateral2.134    Bus1=2_133   Bus2=2_134   Length=1    units=m Linecode=Line_95
New Line.Lateral2.135    Bus1=2_134   Bus2=2_135   Length=1    units=m Linecode=Line_95
New Line.Lateral2.136    Bus1=2_135   Bus2=2_136   Length=1    units=m Linecode=Line_95
New Line.Lateral2.137    Bus1=2_136   Bus2=2_137   Length=1    units=m Linecode=Line_95
New Line.Lateral2.138    Bus1=2_137   Bus2=2_138   Length=1    units=m Linecode=Line_95
New Line.Lateral2.139    Bus1=2_138   Bus2=2_139   Length=1    units=m Linecode=Line_95
New Line.Lateral2.140    Bus1=2_139   Bus2=2_140   Length=1    units=m Linecode=Line_95
New Line.Lateral2.141    Bus1=2_140   Bus2=2_141   Length=1    units=m Linecode=Line_95
New Line.Lateral2.142    Bus1=2_141   Bus2=2_142   Length=1    units=m Linecode=Line_95
New Line.Lateral2.143    Bus1=2_142   Bus2=2_143   Length=1    units=m Linecode=Line_95
New Line.Lateral2.144    Bus1=2_143   Bus2=2_144   Length=1    units=m Linecode=Line_95
New Line.Lateral2.145    Bus1=2_144   Bus2=2_145   Length=1    units=m Linecode=Line_95
New Line.Lateral2.146    Bus1=2_145   Bus2=2_146   Length=1    units=m Linecode=Line_95
New Line.Lateral2.147    Bus1=2_146   Bus2=2_147   Length=1    units=m Linecode=Line_95
New Line.Lateral2.148    Bus1=2_147   Bus2=2_148   Length=1    units=m Linecode=Line_95
New Line.Lateral2.149    Bus1=2_148   Bus2=2_149   Length=1    units=m Linecode=Line_95
New Line.Lateral2.150    Bus1=2_149   Bus2=2_150   Length=1    units=m Linecode=Line_95
New Line.Lateral2.151    Bus1=2_150   Bus2=2_151   Length=1    units=m Linecode=Line_95
New Line.Lateral2.152    Bus1=2_151   Bus2=2_152   Length=1    units=m Linecode=Line_95
New Line.Lateral2.153    Bus1=2_152   Bus2=2_153   Length=1    units=m Linecode=Line_95
New Line.Lateral2.154    Bus1=2_153   Bus2=2_154   Length=1    units=m Linecode=Line_95
New Line.Lateral2.155    Bus1=2_154   Bus2=2_155   Length=1    units=m Linecode=Line_95
New Line.Lateral2.156    Bus1=2_155   Bus2=2_156   Length=1    units=m Linecode=Line_95
New Line.Lateral2.157    Bus1=2_156   Bus2=2_157   Length=1    units=m Linecode=Line_95
New Line.Lateral2.158    Bus1=2_157   Bus2=2_158   Length=1    units=m Linecode=Line_95
New Line.Lateral2.159    Bus1=2_158   Bus2=2_159   Length=1    units=m Linecode=Line_95
New Line.Lateral2.160    Bus1=2_159   Bus2=2_160   Length=1    units=m Linecode=Line_95
New Line.Lateral2.161    Bus1=2_160   Bus2=2_161   Length=1    units=m Linecode=Line_95
New Line.Lateral2.162    Bus1=2_161   Bus2=2_162   Length=1    units=m Linecode=Line_95
New Line.Lateral2.163    Bus1=2_162   Bus2=2_163   Length=1    units=m Linecode=Line_95
New Line.Lateral2.164    Bus1=2_163   Bus2=2_164   Length=1    units=m Linecode=Line_95
New Line.Lateral2.165    Bus1=2_164   Bus2=2_165   Length=1    units=m Linecode=Line_95
New Line.Lateral2.166    Bus1=2_165   Bus2=2_166   Length=1    units=m Linecode=Line_95
New Line.Lateral2.167    Bus1=2_166   Bus2=2_167   Length=1    units=m Linecode=Line_95
New Line.Lateral2.168    Bus1=2_167   Bus2=2_168   Length=1    units=m Linecode=Line_95
New Line.Lateral2.169    Bus1=2_168   Bus2=2_169   Length=1    units=m Linecode=Line_95
New Line.Lateral2.170    Bus1=2_169   Bus2=2_170   Length=1    units=m Linecode=Line_95
New Line.Lateral2.171    Bus1=2_170   Bus2=2_171   Length=1    units=m Linecode=Line_95
New Line.Lateral2.172    Bus1=2_171   Bus2=2_172   Length=1    units=m Linecode=Line_95
New Line.Lateral2.173    Bus1=2_172   Bus2=2_173   Length=1    units=m Linecode=Line_95
New Line.Lateral2.174    Bus1=2_173   Bus2=2_174   Length=1    units=m Linecode=Line_95
New Line.Lateral2.175    Bus1=2_174   Bus2=2_175   Length=1    units=m Linecode=Line_95
New Line.Lateral2.176    Bus1=2_175   Bus2=2_176   Length=1    units=m Linecode=Line_95
New Line.Lateral2.177    Bus1=2_176   Bus2=2_177   Length=1    units=m Linecode=Line_95
New Line.Lateral2.178    Bus1=2_177   Bus2=2_178   Length=1    units=m Linecode=Line_95
New Line.Lateral2.179    Bus1=2_178   Bus2=2_179   Length=1    units=m Linecode=Line_95
New Line.Lateral2.180    Bus1=2_179   Bus2=2_180   Length=1    units=m Linecode=Line_95
New Line.Lateral2.181    Bus1=2_180   Bus2=2_181   Length=1    units=m Linecode=Line_95
New Line.Lateral2.182    Bus1=2_181   Bus2=2_182   Length=1    units=m Linecode=Line_95
New Line.Lateral2.183    Bus1=2_182   Bus2=2_183   Length=1    units=m Linecode=Line_95
New Line.Lateral2.184    Bus1=2_183   Bus2=2_184   Length=1    units=m Linecode=Line_95
New Line.Lateral2.185    Bus1=2_184   Bus2=2_185   Length=1    units=m Linecode=Line_95
New Line.Lateral2.186    Bus1=2_185   Bus2=2_186   Length=1    units=m Linecode=Line_95
New Line.Lateral2.187    Bus1=2_186   Bus2=2_187   Length=1    units=m Linecode=Line_95
New Line.Lateral2.188    Bus1=2_187   Bus2=2_188   Length=1    units=m Linecode=Line_95
New Line.Lateral2.189    Bus1=2_188   Bus2=2_189   Length=1    units=m Linecode=Line_95
New Line.Lateral2.190    Bus1=2_189   Bus2=2_190   Length=1    units=m Linecode=Line_95
New Line.Lateral2.191    Bus1=2_190   Bus2=2_191   Length=1    units=m Linecode=Line_95
New Line.Lateral2.192    Bus1=2_191   Bus2=2_192   Length=1    units=m Linecode=Line_95
New Line.Lateral2.193    Bus1=2_192   Bus2=2_193   Length=1    units=m Linecode=Line_95
New Line.Lateral2.194    Bus1=2_193   Bus2=2_194   Length=1    units=m Linecode=Line_95
New Line.Lateral2.195    Bus1=2_194   Bus2=2_195   Length=1    units=m Linecode=Line_95
New Line.Lateral2.196    Bus1=2_195   Bus2=2_196   Length=1    units=m Linecode=Line_95
New Line.Lateral2.197    Bus1=2_196   Bus2=2_197   Length=1    units=m Linecode=Line_95
New Line.Lateral2.198    Bus1=2_197   Bus2=2_198   Length=1    units=m Linecode=Line_95
New Line.Lateral2.199    Bus1=2_198   Bus2=2_199   Length=1    units=m Linecode=Line_95
New Line.Lateral2.200    Bus1=2_199   Bus2=2_200   Length=1    units=m Linecode=Line_95
...
