Networks/RuralDupli/RuralDupli_LinesLaterals3.txt
New Line.Feeder3.1      Bus1=Main_Busbar Bus2=3_1       Length=1    units=m Linecode=Line_185
New Line.Feeder3.2 Bus1=3_1   Bus2=3_2   Length=1    units=m Linecode=Line_185
New Line.Feeder3.3 Bus1=3_2   Bus2=3_3   Length=1    units=m Linecode=Line_185
New Line.Feeder3.4 Bus1=3_3   Bus2=3_4   Length=1    units=m Linecode=Line_185
New Line.Feeder3.5 Bus1=3_4   Bus2=3_5   Length=1    units=m Linecode=Line_185
New Line.Feeder3.6 Bus1=3_5   Bus2=3_6   Length=1    units=m Linecode=Line_185
New Line.Feeder3.7 Bus1=3_6   Bus2=3_7   Length=1    units=m Linecode=Line_185
New Line.Feeder3.8 Bus1=3_7   Bus2=3_8   Length=1    units=m Linecode=Line_185
New Line.Feeder3.9 Bus1=3_8   Bus2=3_9   Length=1    units=m Linecode=Line_185
New Line.Feeder3.10 Bus1=3_9   Bus2=3_10   Length=1    units=m Linecode=Line_185
New Line.Feeder3.11 Bus1=3_10   Bus2=3_11   Length=1    units=m Linecode=Line_185
New Line.Feeder3.12 Bus1=3_11   Bus2=3_12   Length=1    units=m Linecode=Line_185
New Line.Feeder3.13 Bus1=3_12   Bus2=3_13   Length=1    units=m Linecode=Line_185
New Line.Feeder3.14 Bus1=3_13   Bus2=3_14   Length=1    units=m Linecode=Line_185
New Line.Feeder3.15 Bus1=3_14   Bus2=3_15   Length=1    units=m Linecode=Line_185
New Line.Feeder3.16 Bus1=3_15   Bus2=3_16   Length=1    units=m Linecode=Line_185
New Line.Feeder3.17 Bus1=3_16   Bus2=3_17   Length=1    units=m Linecode=Line_185
New Line.Feeder3.18 Bus1=3_17   Bus2=3_18   Length=1    units=m Linecode=Line_185
New Line.Feeder3.19 Bus1=3_18   Bus2=3_19   Length=1    units=m Linecode=Line_185
New Line.Feeder3.20 Bus1=3_19   Bus2=3_20   Length=1    units=m Linecode=Line_185
New Line.Feeder3.21 Bus1=3_20   Bus2=3_21   Length=1    units=m Linecode=Line_185
New Line.Feeder3.22 Bus1=3_21   Bus2=3_22   Length=1    units=m Linecode=Line_185
New Line.Feeder3.23 Bus1=3_22   Bus2=3_23   Length=1    units=m Linecode=Line_185
New Line.Feeder3.24 Bus1=3_23   Bus2=3_24   Length=1    units=m Linecode=Line_185
New Line.Feeder3.25 Bus1=3_24   Bus2=3_25   Length=1    units=m Linecode=Line_185
New Line.Feeder3.26 Bus1=3_25   Bus2=3_26   Length=1    units=m Linecode=Line_185
New Line.Feeder3.27 Bus1=3_26   Bus2=3_27   Length=1    units=m Linecode=Line_185
New Line.Feeder3.28 Bus1=3_27   Bus2=3_28   Length=1    units=m Linecode=Line_185
New Line.Feeder3.29 Bus1=3_28   Bus2=3_29   Length=1    units=m Linecode=Line_185
New Line.Feeder3.30 Bus1=3_29   Bus2=3_30   Length=1    units=m Linecode=Line_185
New Line.Feeder3.31 Bus1=3_30   Bus2=3_31   Length=1    units=m Linecode=Line_185
New Line.Feeder3.32 Bus1=3_31   Bus2=3_32   Length=1    units=m Linecode=Line_185
New Line.Feeder3.33 Bus1=3_32   Bus2=3_33   Length=1    units=m Linecode=Line_185
New Line.Feeder3.34 Bus1=3_33   Bus2=3_34   Length=1    units=m Linecode=Line_185
New Line.Feeder3.35 Bus1=3_34   Bus2=3_35   Length=1    units=m Linecode=Line_185
New Line.Feeder3.36 Bus1=3_35   Bus2=3_36   Length=1    units=m Linecode=Line_185
New Line.Feeder3.37 Bus1=3_36   Bus2=3_37   Length=1    units=m Linecode=Line_185
New Line.Feeder3.38 Bus1=3_37   Bus2=3_38   Length=1    units=m Linecode=Line_185
New Line.Feeder3.39 Bus1=3_38   Bus2=3_39   Length=1    units=m Linecode=Line_185
New Line.Feeder3.40 Bus1=3_39   Bus2=3_40   Length=1    units=m Linecode=Line_185
New Line.Feeder3.41 Bus1=3_40   Bus2=3_41   Length=1    units=m Linecode=Line_185
New Line.Feeder3.42 Bus1=3_41   Bus2=3_42   Length=1    units=m Linecode=Line_185
New Line.Feeder3.43 Bus1=3_42   Bus2=3_43   Length=1    units=m Linecode=Line_185
New Line.Feeder3.44 Bus1=3_43   Bus2=3_44   Length=1    units=m Linecode=Line_185
New Line.Feeder3.45 Bus1=3_44   Bus2=3_45   Length=1    units=m Linecode=Line_185
New Line.Feeder3.46 Bus1=3_45   Bus2=3_46   Length=1    units=m Linecode=Line_185
New Line.Feeder3.47 Bus1=3_46   Bus2=3_47   Length=1    units=m Linecode=Line_185
New Line.Feeder3.48 Bus1=3_47   Bus2=3_48   Length=1    units=m Linecode=Line_185
New Line.Feeder3.49 Bus1=3_48   Bus2=3_49   Length=1    units=m Linecode=Line_185
New Line.Feeder3.50 Bus1=3_49   Bus2=3_50   Length=1    units=m Linecode=Line_185
New Line.Feeder3.51 Bus1=3_50   Bus2=3_51   Length=1    units=m Linecode=Line_185
New Line.Lateral3_start_1   Bus1=3_50   Bus2=3_52   Length=1    units=m Linecode=Line_95
New Line.Lateral3.53    Bus1=3_52   Bus2=3_53   Length=1    units=m Linecode=Line_95
New Line.Lateral3.54    Bus1=3_53   Bus2=3_54   Length=1    units=m Linecode=Line_95
New Line.Lateral3.55    Bus1=3_54   Bus2=3_55   Length=1    units=m Linecode=Line_95
New Line.Lateral3.56    Bus1=3_55   Bus2=3_56   Length=1    units=m Linecode=Line_95
New Line.Lateral3.57    Bus1=3_56   Bus2=3_57   Length=1    units=m Linecode=Line_95
New Line.Lateral3.58    Bus1=3_57   Bus2=3_58   Length=1    units=m Linecode=Line_95
New Line.Lateral3.59    Bus1=3_58   Bus2=3_59   Length=1    units=m Linecode=Line_95
New Line.Lateral3.60    Bus1=3_59   Bus2=3_60   Length=1    units=m Linecode=Line_95
New Line.Lateral3.61    Bus1=3_60   Bus2=3_61   Length=1    units=m Linecode=Line_95
New Line.Lateral3.62    Bus1=3_61   Bus2=3_62   Length=1    units=m Linecode=Line_95
New Line.Lateral3.63    Bus1=3_62   Bus2=3_63   Length=1    units=m Linecode=Line_95
New Line.Lateral3.64    Bus1=3_63   Bus2=3_64   Length=1    units=m Linecode=Line_95
New Line.Lateral3.65    Bus1=3_64   Bus2=3_65   Length=1    units=m Linecode=Line_95
New Line.Lateral3.66    Bus1=3_65   Bus2=3_66   Length=1    units=m Linecode=Line_95
New Line.Lateral3.67    Bus1=3_66   Bus2=3_67   Length=1    units=m Linecode=Line_95
New Line.Lateral3.68    Bus1=3_67   Bus2=3_68   Length=1    units=m Linecode=Line_95
New Line.Lateral3.69    Bus1=3_68   Bus2=3_69   Length=1    units=m Linecode=Line_95
New Line.Lateral3.70    Bus1=3_69   Bus2=3_70   Length=1    units=m Linecode=Line_95
New Line.Lateral3.71    Bus1=3_70   Bus2=3_71   Length=1    units=m Linecode=Line_95
New Line.Lateral3.72    Bus1=3_71   Bus2=3_72   Length=1    units=m Linecode=Line_95
New Line.Lateral3.73    Bus1=3_72   Bus2=3_73   Length=1    units=m Linecode=Line_95
New Line.Lateral3.74    Bus1=3_73   Bus2=3_74   Length=1    units=m Linecode=Line_95
New Line.Lateral3.75    Bus1=3_74   Bus2=3_75   Length=1    units=m Linecode=Line_95
New Line.Lateral3.76    Bus1=3_75   Bus2=3_76   Length=1    units=m Linecode=Line_95
New Line.Lateral3.77    Bus1=3_76   Bus2=3_77   Length=1    units=m Linecode=Line_95
New Line.Lateral3.78    Bus1=3_77   Bus2=3_78   Length=1    units=m Linecode=Line_95
New Line.Lateral3.79    Bus1=3_78   Bus2=3_79   Length=1    units=m Linecode=Line_95
New Line.Lateral3.80    Bus1=3_79   Bus2=3_80   Length=1    units=m Linecode=Line_95
New Line.Lateral3.81    Bus1=3_80   Bus2=3_81   Length=1    units=m Linecode=Line_95
New Line.Lateral3.82    Bus1=3_81   Bus2=3_82   Length=1    units=m Linecode=Line_95
New Line.Lateral3.83    Bus1=3_82   Bus2=3_83   Length=1    units=m Linecode=Line_95
New Line.Lateral3.84    Bus1=3_83   Bus2=3_84   Length=1    units=m Linecode=Line_95
New Line.Lateral3.85    Bus1=3_84   Bus2=3_85   Length=1    units=m Linecode=Line_95
New Line.Lateral3.86    Bus1=3_85   Bus2=3_86   Length=1    units=m Linecode=Line_95
New Line.Lateral3.87    Bus1=3_86   Bus2=3_87   Length=1    units=m Linecode=Line_95
New Line.Lateral3.88    Bus1=3_87   Bus2=3_88   Length=1    units=m Linecode=Line_95
New Line.Lateral3.89    Bus1=3_88   Bus2=3_89   Length=1    units=m Linecode=Line_95
New Line.Lateral3.90    Bus1=3_89   Bus2=3_90   Length=1    units=m Linecode=Line_95
New Line.Lateral3.91    Bus1=3_90   Bus2=3_91   Length=1    units=m Linecode=Line_95
New Line.Lateral3.92    Bus1=3_91   Bus2=3_92   Length=1    units=m Linecode=Line_95
New Line.Lateral3.93    Bus1=3_92   Bus2=3_93   Length=1    units=m Linecode=Line_95
New Line.Lateral3.94    Bus1=3_93   Bus2=3_94   Length=1    units=m Linecode=Line_95
New Line.Lateral3.95    Bus1=3_94   Bus2=3_95   Length=1    units=m Linecode=Line_95
New Line.Lateral3.96    Bus1=3_95   Bus2=3_96   Length=1    units=m Linecode=Line_95
New Line.Lateral3.97    Bus1=3_96   Bus2=3_97   Length=1    units=m Linecode=Line_95
New Line.Lateral3.98    Bus1=3_97   Bus2=3_98   Length=1    units=m Linecode=Line_95
New Line.Lateral3.99    Bus1=3_98   Bus2=3_99   Length=1    units=m Linecode=Line_95
New Line.Lateral3.100    Bus1=3_99   Bus2=3_100   Length=1    units=m Linecode=Line_95
New Line.Lateral3.101    Bus1=3_100   Bus2=3_101   Length=1    units=m Linecode=Line_95
New Line.Lateral3.102    Bus1=3_101   Bus2=3_102   Length=1    units=m Linecode=Line_95
New Line.Lateral3.103    Bus1=3_102   Bus2=3_103   Length=1    units=m Linecode=Line_95
New Line.Lateral3.104    Bus1=3_103   Bus2=3_104   Length=1    units=m Linecode=Line_95
New Line.Lateral3.105    Bus1=3_104   Bus2=3_105   Length=1    units=m Linecode=Line_95
New Line.Lateral3.106    Bus1=3_105   Bus2=3_106   Length=1    units=m Linecode=Line_95
New Line.Lateral3.107    Bus1=3_106   Bus2=3_107   Length=1    units=m Linecode=Line_95
New Line.Lateral3.108    Bus1=3_107   Bus2=3_108   Length=1    units=m Linecode=Line_95
New Line.Lateral3.109    Bus1=3_108   Bus2=3_109   Length=1    units=m Linecode=Line_95
New Line.Lateral3.110    Bus1=3_109   Bus2=3_110   Length=1    units=m Linecode=Line_95
New Line.Lateral3.111    Bus1=3_110   Bus2=3_111   Length=1    units=m Linecode=Line_95
New Line.Lateral3.112    Bus1=3_111   Bus2=3_112   Length=1    units=m Linecode=Line_95
New Line.Lateral3.113    Bus1=3_112   Bus2=3_113   Length=1    units=m Linecode=Line_95
New Line.Lateral3.114    Bus1=3_113   Bus2=3_114   Length=1    units=m Linecode=Line_95
New Line.Lateral3.115    Bus1=3_114   Bus2=3_115   Length=1    units=m Linecode=Line_95
New Line.Lateral3.116    Bus1=3_115   Bus2=3_116   Length=1    units=m Linecode=Line_95
New Line.Lateral3.117    Bus1=3_116   Bus2=3_117   Length=1    units=m Linecode=Line_95
New Line.Lateral3.118    Bus1=3_117   Bus2=3_118   Length=1    units=m Linecode=Line_95
New Line.Lateral3.119    Bus1=3_118   Bus2=3_119   Length=1    units=m Linecode=Line_95
New Line.Lateral3.120    Bus1=3_119   Bus2=3_120   Length=1    units=m Linecode=Line_95
New Line.Lateral3.121    Bus1=3_120   Bus2=3_121   Length=1    units=m Linecode=Line_95
New Line.Lateral3.122    Bus1=3_121   Bus2=3_122   Length=1    units=m Linecode=Line_95
New Line.Lateral3.123    Bus1=3_122   Bus2=3_123   Length=1    units=m Linecode=Line_95
New Line.Lateral3.124    Bus1=3_123   Bus2=3_124   Length=1    units=m Linecode=Line_95
New Line.Lateral3.125    Bus1=3_124   Bus2=3_125   Length=1    units=m Linecode=Line_95
New Line.Lateral3.126    Bus1=3_125   Bus2=3_126   Length=1    units=m Linecode=Line_95
New Line.Lateral3.127    Bus1=3_126   Bus2=3_127   Length=1    units=m Linecode=Line_95
New Line.Lateral3.128    Bus1=3_127   Bus2=3_128   Length=1    units=m Linecode=Line_95
New Line.Lateral3.129    Bus1=3_128   Bus2=3_129   Length=1    units=m Linecode=Line_95
New Line.Lateral3.130    Bus1=3_129   Bus2=3_130   Length=1    units=m Linecode=Line_95
New Line.Lateral3.131    Bus1=3_130   Bus2=3_131   Length=1    units=m Linecode=Line_95
New Line.Lateral3.132    Bus1=3_131   Bus2=3_132   Length=1    units=m Linecode=Line_95
New Line.Lateral3.133    Bus1=3_132   Bus2=3_133   Length=1    units=m Linecode=Line_95
New Line.Lateral3.134    Bus1=3_133   Bus2=3_134   Length=1    units=m Linecode=Line_95
New Line.Lateral3.135    Bus1=3_134   Bus2=3_135   Length=1    units=m Linecode=Line_95
New Line.Lateral3.136    Bus1=3_135   Bus2=3_136   Length=1    units=m Linecode=Line_95
New Line.Lateral3.137    Bus1=3_136   Bus2=3_137   Length=1    units=m Linecode=Line_95
New Line.Lateral3.138    Bus1=3_137   Bus2=3_138   Length=1    units=m Linecode=Line_95
New Line.Lateral3.139    Bus1=3_138   Bus2=3_139   Length=1    units=m Linecode=Line_95
New Line.Lateral3.140    Bus1=3_139   Bus2=3_140   Length=1    units=m Linecode=Line_95
New Line.Lateral3.141    Bus1=3_140   Bus2=3_141   Length=1    units=m Linecode=Line_95
New Line.Lateral3.142    Bus1=3_141   Bus2=3_142   Length=1    units=m Linecode=Line_95
New Line.Lateral3.143    Bus1=3_142   Bus2=3_143   Length=1    units=m Linecode=Line_95
New Line.Lateral3.144    Bus1=3_143   Bus2=3_144   Length=1    units=m Linecode=Line_95
New Line.Lateral3.145    Bus1=3_144   Bus2=3_145   Length=1    units=m Linecode=Line_95
New Line.Lateral3.146    Bus1=3_145   Bus2=3_146   Length=1    units=m Linecode=Line_95
New Line.Lateral3.147    Bus1=3_146   Bus2=3_147   Length=1    units=m Linecode=Line_95
New Line.Lateral3.148    Bus1=3_147   Bus2=3_148   Length=1    units=m Linecode=Line_95
New Line.Lateral3.149    Bus1=3_148   Bus2=3_149   Length=1    units=m Linecode=Line_95
New Line.Lateral3.150    Bus1=3_149   Bus2=3_150   Length=1    units=m Linecode=Line_95
New Line.Lateral3.151    Bus1=3_150   Bus2=3_151   Length=1    units=m Linecode=Line_95
New Line.Lateral3.152    Bus1=3_151   Bus2=3_152   Length=1    units=m Linecode=Line_95
New Line.Lateral3.153    Bus1=3_152   Bus2=3_153   Length=1    units=m Linecode=Line_95
New Line.Lateral3.154    Bus1=3_153   Bus2=3_154   Length=1    units=m Linecode=Line_95
New Line.Lateral3.155    Bus1=3_154   Bus2=3_155   Length=1    units=m Linecode=Line_95
New Line.Lateral3.156    Bus1=3_155   Bus2=3_156   Length=1    units=m Linecode=Line_95
New Line.Lateral3.157    Bus1=3_156   Bus2=3_157   Length=1    units=m Linecode=Line_95
New Line.Lateral3.158    Bus1=3_157   Bus2=3_158   Length=1    units=m Linecode=Line_95
New Line.Lateral3.159    Bus1=3_158   Bus2=3_159   Length=1    units=m Linecode=Line_95
New Line.Lateral3.160    Bus1=3_159   Bus2=3_160   Length=1    units=m Linecode=Line_95
New Line.Lateral3.161    Bus1=3_160   Bus2=3_161   Length=1    units=m Linecode=Line_95
New Line.Lateral3.162    Bus1=3_161   Bus2=3_162   Length=1    units=m Linecode=Line_95
New Line.Lateral3.163    Bus1=3_162   Bus2=3_163   Length=1    units=m Linecode=Line_95
New Line.Lateral3.164    Bus1=3_163   Bus2=3_164   Length=1    units=m Linecode=Line_95
New Line.Lateral3.165    Bus1=3_164   Bus2=3_165   Length=1    units=m Linecode=Line_95
New Line.Lateral3.166    Bus1=3_165   Bus2=3_166   Length=1    units=m Linecode=Line_95
New Line.Lateral3.167    Bus1=3_166   Bus2=3_167   Length=1    units=m Linecode=Line_95
New Line.Lateral3.168    Bus1=3_167   Bus2=3_168   Length=1    units=m Linecode=Line_95
New Line.Lateral3.169    Bus1=3_168   Bus2=3_169   Length=1    units=m Linecode=Line_95
New Line.Lateral3.170    Bus1=3_169   Bus2=3_170   Length=1    units=m Linecode=Line_95
New Line.Lateral3.171    Bus1=3_170   Bus2=3_171   Length=1    units=m Linecode=Line_95
New Line.Lateral3.172    Bus1=3_171   Bus2=3_172   Length=1    units=m Linecode=Line_95
New Line.Lateral3.173    Bus1=3_172   Bus2=3_173   Length=1    units=m Linecode=Line_95
New Line.Lateral3.174    Bus1=3_173   Bus2=3_174   Length=1    units=m Linecode=Line_95
New Line.Lateral3.175    Bus1=3_174   Bus2=3_175   Length=1    units=m Linecode=Line_95
New Line.Lateral3.176    Bus1=3_175   Bus2=3_176   Length=1    units=m Linecode=Line_95
New Line.Lateral3.177    Bus1=3_176   Bus2=3_177   Length=1    units=m Linecode=Line_95
New Line.Lateral3.178    Bus1=3_177   Bus2=3_178   Length=1    units=m Linecode=Line_95
New Line.Lateral3.179    Bus1=3_178   Bus2=3_179   Length=1    units=m Linecode=Line_95
New Line.Lateral3.180    Bus1=3_179   Bus2=3_180   Length=1    units=m Linecode=Line_95
New Line.Lateral3.181    Bus1=3_180   Bus2=3_181   Length=1    units=m Linecode=Line_95
New Line.Lateral3.182    Bus1=3_181   Bus2=3_182   Length=1    units=m Linecode=Line_95
New Line.Lateral3.183    Bus1=3_182   Bus2=3_183   Length=1    units=m Linecode=Line_95
New Line.Lateral3.184    Bus1=3_183   Bus2=3_184   Length=1    units=m Linecode=Line_95
New Line.Lateral3.185    Bus1=3_184   Bus2=3_185   Length=1    units=m Linecode=Line_95
New Line.Lateral3.186    Bus1=3_185   Bus2=3_186   Length=1    units=m Linecode=Line_95
New Line.Lateral3.187    Bus1=3_186   Bus2=3_187   Length=1    units=m Linecode=Line_95
New Line.Lateral3.188    Bus1=3_187   Bus2=3_188   Length=1    units=m Linecode=Line_95
New Line.Lateral3.189    Bus1=3_188   Bus2=3_189   Length=1    units=m Linecode=Line_95
New Line.Lateral3.190    Bus1=3_189   Bus2=3_190   Length=1    units=m Linecode=Line_95
New Line.Lateral3.191    Bus1=3_190   Bus2=3_191   Length=1    units=m Linecode=Line_95
New Line.Lateral3.192    Bus1=3_191   Bus2=3_192   Length=1    units=m Linecode=Line_95
New Line.Lateral3.193    Bus1=3_192   Bus2=3_193   Length=1    units=m Linecode=Line_95
New Line.Lateral3.194    Bus1=3_193   Bus2=3_194   Length=1    units=m Linecode=Line_95
New Line.Lateral3.195    Bus1=3_194   Bus2=3_195   Length=1    units=m Linecode=Line_95
New Line.Lateral3.196    Bus1=3_195   Bus2=3_196   Length=1    units=m Linecode=Line_95
New Line.Lateral3.197    Bus1=3_196   Bus2=3_197   Length=1    units=m Linecode=Line_95
New Line.Lateral3.198    Bus1=3_197   Bus2=3_198   Length=1    units=m Linecode=Line_95
New Line.Lateral3.199    Bus1=3_198   Bus2=3_199   Length=1    units=m Linecode=Line_95
New Line.Lateral3.200    Bus1=3_199   Bus2=3_200   Length=1    units=m Linecode=Line_95
...
