Networks/RuralDupli/RuralDupli_LinesLaterals4.txt
New Line.Feeder4.1      Bus1=Main_Busbar Bus2=4_1       Length=1    units=m Linecode=Line_185
New Line.Feeder4.2 Bus1=4_1   Bus2=4_2   Length=1    units=m Linecode=Line_185
New Line.Feeder4.3 Bus1=4_2   Bus2=4_3   Length=1    units=m Linecode=Line_185
New Line.Feeder4.4 Bus1=4_3   Bus2=4_4   Length=1    units=m Linecode=Line_185
New Line.Feeder4.5 Bus1=4_4   Bus2=4_5   Length=1    units=m Linecode=Line_185
New Line.Feeder4.6 Bus1=4_5   Bus2=4_6   Length=1    units=m Linecode=Line_185
New Line.Feeder4.7 Bus1=4_6   Bus2=4_7   Length=1    units=m Linecode=Line_185
New Line.Feeder4.8 Bus1=4_7   Bus2=4_8   Length=1    units=m Linecode=Line_185
New Line.Feeder4.9 Bus1=4_8   Bus2=4_9   Length=1    units=m Linecode=Line_185
New Line.Feeder4.10 Bus1=4_9   Bus2=4_10   Length=1    units=m Linecode=Line_185
New Line.Feeder4.11 Bus1=4_10   Bus2=4_11   Length=1    units=m Linecode=Line_185
New Line.Feeder4.12 Bus1=4_11   Bus2=4_12   Length=1    units=m Linecode=Line_185
New Line.Feeder4.13 Bus1=4_12   Bus2=4_13   Length=1    units=m Linecode=Line_185
New Line.Feeder4.14 Bus1=4_13   Bus2=4_14   Length=1    units=m Linecode=Line_185
New Line.Feeder4.15 Bus1=4_14   Bus2=4_15   Length=1    units=m Linecode=Line_185
New Line.Feeder4.16 Bus1=4_15   Bus2=4_16   Length=1    units=m Linecode=Line_185
New Line.Feeder4.17 Bus1=4_16   Bus2=4_17   Length=1    units=m Linecode=Line_185
New Line.Feeder4.18 Bus1=4_17   Bus2=4_18   Length=1    units=m Linecode=Line_185
New Line.Feeder4.19 Bus1=4_18   Bus2=4_19   Length=1    units=m Linecode=Line_185
New Line.Feeder4.20 Bus1=4_19   Bus2=4_20   Length=1    units=m Linecode=Line_185
New Line.Feeder4.21 Bus1=4_20   Bus2=4_21   Length=1    units=m Linecode=Line_185
New Line.Feeder4.22 Bus1=4_21   Bus2=4_22   Length=1    units=m Linecode=Line_185
New Line.Feeder4.23 Bus1=4_22   Bus2=4_23   Length=1    units=m Linecode=Line_185
New Line.Feeder4.24 Bus1=4_23   Bus2=4_24   Length=1    units=m Linecode=Line_185
New Line.Feeder4.25 Bus1=4_24   Bus2=4_25   Length=1    units=m Linecode=Line_185
New Line.Feeder4.26 Bus1=4_25   Bus2=4_26   Length=1    units=m Linecode=Line_185
New Line.Feeder4.27 Bus1=4_26   Bus2=4_27   Length=1    units=m Linecode=Line_185
New Line.Feeder4.28 Bus1=4_27   Bus2=4_28   Length=1    units=m Linecode=Line_185
New Line.Feeder4.29 Bus1=4_28   Bus2=4_29   Length=1    units=m Linecode=Line_185
New Line.Feeder4.30 Bus1=4_29   Bus2=4_30   Length=1    units=m Linecode=Line_185
New Line.Feeder4.31 Bus1=4_30   Bus2=4_31   Length=1    units=m Linecode=Line_185
New Line.Feeder4.32 Bus1=4_31   Bus2=4_32   Length=1    units=m Linecode=Line_185
New Line.Feeder4.33 Bus1=4_32   Bus2=4_33   Length=1    units=m Linecode=Line_185
New Line.Feeder4.34 Bus1=4_33   Bus2=4_34   Length=1    units=m Linecode=Line_185
New Line.Feeder4.35 Bus1=4_34   Bus2=4_35   Length=1    units=m Linecode=Line_185
New Line.Feeder4.36 Bus1=4_35   Bus2=4_36   Length=1    units=m Linecode=Line_185
New Line.Feeder4.37 Bus1=4_36   Bus2=4_37   Length=1    units=m Linecode=Line_185
New Line.Feeder4.38 Bus1=4_37   Bus2=4_38   Length=1    units=m Linecode=Line_185
New Line.Feeder4.39 Bus1=4_38   Bus2=4_39   Length=1    units=m Linecode=Line_185
New Line.Feeder4.40 Bus1=4_39   Bus2=4_40   Length=1    units=m Linecode=Line_185
New Line.Feeder4.41 Bus1=4_40   Bus2=4_41   Length=1    units=m Linecode=Line_185
New Line.Feeder4.42 Bus1=4_41   Bus2=4_42   Length=1    units=m Linecode=Line_185
New Line.Feeder4.43 Bus1=4_42   Bus2=4_43   Length=1    units=m Linecode=Line_185
New Line.Feeder4.44 Bus1=4_43   Bus2=4_44   Length=1    units=m Linecode=Line_185
New Line.Feeder4.45 Bus1=4_44   Bus2=4_45   Length=1    units=m Linecode=Line_185
New Line.Feeder4.46 Bus1=4_45   Bus2=4_46   Length=1    units=m Linecode=Line_185
New Line.Feeder4.47 Bus1=4_46   Bus2=4_47   Length=1    units=m Linecode=Line_185
New Line.Feeder4.48 Bus1=4_47   Bus2=4_48   Length=1    units=m Linecode=Line_185
New Line.Feeder4.49 Bus1=4_48   Bus2=4_49   Length=1    units=m Linecode=Line_185
New Line.Feeder4.50 Bus1=4_49   Bus2=4_50   Length=1    units=m Linecode=Line_185
New Line.Feeder4.51 Bus1=4_50   Bus2=4_51   Length=1    units=m Linecode=Line_185
New Line.Lateral4_start_1   Bus1=4_50   Bus2=4_52   Length=1    units=m Linecode=Line_95
New Line.Lateral4.53    Bus1=4_52   Bus2=4_53   Length=1    units=m Linecode=Line_95
New Line.Lateral4.54    Bus1=4_53   Bus2=4_54   Length=1    units=m Linecode=Line_95
New Line.Lateral4.55    Bus1=4_54   Bus2=4_55   Length=1    units=m Linecode=Line_95
New Line.Lateral4.56    Bus1=4_55   Bus2=4_56   Length=1    units=m Linecode=Line_95
New Line.Lateral4.57    Bus1=4_56   Bus2=4_57   Length=1    units=m Linecode=Line_95
New Line.Lateral4.58    Bus1=4_57   Bus2=4_58   Length=1    units=m Linecode=Line_95
New Line.Lateral4.59    Bus1=4_58   Bus2=4_59   Length=1    units=m Linecode=Line_95
New Line.Lateral4.60    Bus1=4_59   Bus2=4_60   Length=1    units=m Linecode=Line_95
New Line.Lateral4.61    Bus1=4_60   Bus2=4_61   Length=1    units=m Linecode=Line_95
New Line.Lateral4.62    Bus1=4_61   Bus2=4_62   Length=1    units=m Linecode=Line_95
New Line.Lateral4.63    Bus1=4_62   Bus2=4_63   Length=1    units=m Linecode=Line_95
New Line.Lateral4.64    Bus1=4_63   Bus2=4_64   Length=1    units=m Linecode=Line_95
New Line.Lateral4.65    Bus1=4_64   Bus2=4_65   Length=1    units=m Linecode=Line_95
New Line.Lateral4.66    Bus1=4_65   Bus2=4_66   Length=1    units=m Linecode=Line_95
New Line.Lateral4.67    Bus1=4_66   Bus2=4_67   Length=1    units=m Linecode=Line_95
New Line.Lateral4.68    Bus1=4_67   Bus2=4_68   Length=1    units=m Linecode=Line_95
New Line.Lateral4.69    Bus1=4_68   Bus2=4_69   Length=1    units=m Linecode=Line_95
New Line.Lateral4.70    Bus1=4_69   Bus2=4_70   Length=1    units=m Linecode=Line_95
New Line.Lateral4.71    Bus1=4_70   Bus2=4_71   Length=1    units=m Linecode=Line_95
New Line.Lateral4.72    Bus1=4_71   Bus2=4_72   Length=1    units=m Linecode=Line_95
New Line.Lateral4.73    Bus1=4_72   Bus2=4_73   Length=1    units=m Linecode=Line_95
New Line.Lateral4.74    Bus1=4_73   Bus2=4_74   Length=1    units=m Linecode=Line_95
New Line.Lateral4.75    Bus1=4_74   Bus2=4_75   Length=1    units=m Linecode=Line_95
New Line.Lateral4.76    Bus1=4_75   Bus2=4_76   Length=1    units=m Linecode=Line_95
New Line.Lateral4.77    Bus1=4_76   Bus2=4_77   Length=1    units=m Linecode=Line_95
New Line.Lateral4.78    Bus1=4_77   Bus2=4_78   Length=1    units=m Linecode=Line_95
New Line.Lateral4.79    Bus1=4_78   Bus2=4_79   Length=1    units=m Linecode=Line_95
New Line.Lateral4.80    Bus1=4_79   Bus2=4_80   Length=1    units=m Linecode=Line_95
New Line.Lateral4.81    Bus1=4_80   Bus2=4_81   Length=1    units=m Linecode=Line_95
New Line.Lateral4.82    Bus1=4_81   Bus2=4_82   Length=1    units=m Linecode=Line_95
New Line.Lateral4.83    Bus1=4_82   Bus2=4_83   Length=1    units=m Linecode=Line_95
New Line.Lateral4.84    Bus1=4_83   Bus2=4_84   Length=1    units=m Linecode=Line_95
New Line.Lateral4.85    Bus1=4_84   Bus2=4_85   Length=1    units=m Linecode=Line_95
New Line.Lateral4.86    Bus1=4_85   Bus2=4_86   Length=1    units=m Linecode=Line_95
New Line.Lateral4.87    Bus1=4_86   Bus2=4_87   Length=1    units=m Linecode=Line_95
New Line.Lateral4.88    Bus1=4_87   Bus2=4_88   Length=1    units=m Linecode=Line_95
New Line.Lateral4.89    Bus1=4_88   Bus2=4_89   Length=1    units=m Linecode=Line_95
New Line.Lateral4.90    Bus1=4_89   Bus2=4_90   Length=1    units=m Linecode=Line_95
New Line.Lateral4.91    Bus1=4_90   Bus2=4_91   Length=1    units=m Linecode=Line_95
New Line.Lateral4.92    Bus1=4_91   Bus2=4_92   Length=1    units=m Linecode=Line_95
New Line.Lateral4.93    Bus1=4_92   Bus2=4_93   Length=1    units=m Linecode=Line_95
New Line.Lateral4.94    Bus1=4_93   Bus2=4_94   Length=1    units=m Linecode=Line_95
New Line.Lateral4.95    Bus1=4_94   Bus2=4_95   Length=1    units=m Linecode=Line_95
New Line.Lateral4.96    Bus1=4_95   Bus2=4_96   Length=1    units=m Linecode=Line_95
New Line.Lateral4.97    Bus1=4_96   Bus2=4_97   Length=1    units=m Linecode=Line_95
New Line.Lateral4.98    Bus1=4_97   Bus2=4_98   Length=1    units=m Linecode=Line_95
New Line.Lateral4.99    Bus1=4_98   Bus2=4_99   Length=1    units=m Linecode=Line_95
New Line.Lateral4.100    Bus1=4_99   Bus2=4_100   Length=1    units=m Linecode=Line_95
New Line.Lateral4.101    Bus1=4_100   Bus2=4_101   Length=1    units=m Linecode=Line_95
New Line.Lateral4.102    Bus1=4_101   Bus2=4_102   Length=1    units=m Linecode=Line_95
New Line.Lateral4.103    Bus1=4_102   Bus2=4_103   Length=1    units=m Linecode=Line_95
New Line.Lateral4.104    Bus1=4_103   Bus2=4_104   Length=1    units=m Linecode=Line_95
New Line.Lateral4.105    Bus1=4_104   Bus2=4_105   Length=1    units=m Linecode=Line_95
New Line.Lateral4.106    Bus1=4_105   Bus2=4_106   Length=1    units=m Linecode=Line_95
New Line.Lateral4.107    Bus1=4_106   Bus2=4_107   Length=1    units=m Linecode=Line_95
New Line.Lateral4.108    Bus1=4_107   Bus2=4_108   Length=1    units=m Linecode=Line_95
New Line.Lateral4.109    Bus1=4_108   Bus2=4_109   Length=1    units=m Linecode=Line_95
New Line.Lateral4.110    Bus1=4_109   Bus2=4_110   Length=1    units=m Linecode=Line_95
New Line.Lateral4.111    Bus1=4_110   Bus2=4_111   Length=1    units=m Linecode=Line_95
New Line.Lateral4.112    Bus1=4_111   Bus2=4_112   Length=1    units=m Linecode=Line_95
New Line.Lateral4.113    Bus1=4_112   Bus2=4_113   Length=1    units=m Linecode=Line_95
New Line.Lateral4.114    Bus1=4_113   Bus2=4_114   Length=1    units=m Linecode=Line_95
New Line.Lateral4.115    Bus1=4_114   Bus2=4_115   Length=1    units=m Linecode=Line_95
New Line.Lateral4.116    Bus1=4_115   Bus2=4_116   Length=1    units=m Linecode=Line_95
New Line.Lateral4.117    Bus1=4_116   Bus2=4_117   Length=1    units=m Linecode=Line_95
New Line.Lateral4.118    Bus1=4_117   Bus2=4_118   Length=1    units=m Linecode=Line_95
New Line.Lateral4.119    Bus1=4_118   Bus2=4_119   Length=1    units=m Linecode=Line_95
New Line.Lateral4.120    Bus1=4_119   Bus2=4_120   Length=1    units=m Linecode=Line_95
New Line.Lateral4.121    Bus1=4_120   Bus2=4_121   Length=1    units=m Linecode=Line_95
New Line.Lateral4.122    Bus1=4_121   Bus2=4_122   Length=1    units=m Linecode=Line_95
New Line.Lateral4.123    Bus1=4_122   Bus2=4_123   Length=1    units=m Linecode=Line_95
New Line.Lateral4.124    Bus1=4_123   Bus2=4_124   Length=1    units=m Linecode=Line_95
New Line.Lateral4.125    Bus1=4_124   Bus2=4_125   Length=1    units=m Linecode=Line_95
New Line.Lateral4.126    Bus1=4_125   Bus2=4_126   Length=1    units=m Linecode=Line_95
New Line.Lateral4.127    Bus1=4_126   Bus2=4_127   Length=1    units=m Linecode=Line_95
New Line.Lateral4.128    Bus1=4_127   Bus2=4_128   Length=1    units=m Linecode=Line_95
New Line.Lateral4.129    Bus1=4_128   Bus2=4_129   Length=1    units=m Linecode=Line_95
New Line.Lateral4.130    Bus1=4_129   Bus2=4_130   Length=1    units=m Linecode=Line_95
New Line.Lateral4.131    Bus1=4_130   Bus2=4_131   Length=1    units=m Linecode=Line_95
New Line.Lateral4.132    Bus1=4_131   Bus2=4_132   Length=1    units=m Linecode=Line_95
New Line.Lateral4.133    Bus1=4_132   Bus2=4_133   Length=1    units=m Linecode=Line_95
New Line.Lateral4.134    Bus1=4_133   Bus2=4_134   Length=1    units=m Linecode=Line_95
New Line.Lateral4.135    Bus1=4_134   Bus2=4_135   Length=1    units=m Linecode=Line_95
New Line.Lateral4.136    Bus1=4_135   Bus2=4_136   Length=1    units=m Linecode=Line_95
New Line.Lateral4.137    Bus1=4_136   Bus2=4_137   Length=1    units=m Linecode=Line_95
New Line.Lateral4.138    Bus1=4_137   Bus2=4_138   Length=1    units=m Linecode=Line_95
New Line.Lateral4.139    Bus1=4_138   Bus2=4_139   Length=1    units=m Linecode=Line_95
New Line.Lateral4.140    Bus1=4_139   Bus2=4_140   Length=1    units=m Linecode=Line_95
New Line.Lateral4.141    Bus1=4_140   Bus2=4_141   Length=1    units=m Linecode=Line_95
New Line.Lateral4.142    Bus1=4_141   Bus2=4_142   Length=1    units=m Linecode=Line_95
New Line.Lateral4.143    Bus1=4_142   Bus2=4_143   Length=1    units=m Linecode=Line_95
New Line.Lateral4.144    Bus1=4_143   Bus2=4_144   Length=1    units=m Linecode=Line_95
New Line.Lateral4.145    Bus1=4_144   Bus2=4_145   Length=1    units=m Linecode=Line_95
New Line.Lateral4.146    Bus1=4_145   Bus2=4_146   Length=1    units=m Linecode=Line_95
New Line.Lateral4.147    Bus1=4_146   Bus2=4_147   Length=1    units=m Linecode=Line_95
New Line.Lateral4.148    Bus1=4_147   Bus2=4_148   Length=1    units=m Linecode=Line_95
New Line.Lateral4.149    Bus1=4_148   Bus2=4_149   Length=1    units=m Linecode=Line_95
New Line.Lateral4.150    Bus1=4_149   Bus2=4_150   Length=1    units=m Linecode=Line_95
New Line.Lateral4.151    Bus1=4_150   Bus2=4_151   Length=1    units=m Linecode=Line_95
New Line.Lateral4.152    Bus1=4_151   Bus2=4_152   Length=1    units=m Linecode=Line_95
New Line.Lateral4.153    Bus1=4_152   Bus2=4_153   Length=1    units=m Linecode=Line_95
New Line.Lateral4.154    Bus1=4_153   Bus2=4_154   Length=1    units=m Linecode=Line_95
New Line.Lateral4.155    Bus1=4_154   Bus2=4_155   Length=1    units=m Linecode=Line_95
New Line.Lateral4.156    Bus1=4_155   Bus2=4_156   Length=1    units=m Linecode=Line_95
New Line.Lateral4.157    Bus1=4_156   Bus2=4_157   Length=1    units=m Linecode=Line_95
New Line.Lateral4.158    Bus1=4_157   Bus2=4_158   Length=1    units=m Linecode=Line_95
New Line.Lateral4.159    Bus1=4_158   Bus2=4_159   Length=1    units=m Linecode=Line_95
New Line.Lateral4.160    Bus1=4_159   Bus2=4_160   Length=1    units=m Linecode=Line_95
New Line.Lateral4.161    Bus1=4_160   Bus2=4_161   Length=1    units=m Linecode=Line_95
New Line.Lateral4.162    Bus1=4_161   Bus2=4_162   Length=1    units=m Linecode=Line_95
New Line.Lateral4.163    Bus1=4_162   Bus2=4_163   Length=1    units=m Linecode=Line_95
New Line.Lateral4.164    Bus1=4_163   Bus2=4_164   Length=1    units=m Linecode=Line_95
New Line.Lateral4.165    Bus1=4_164   Bus2=4_165   Length=1    units=m Linecode=Line_95
New Line.Lateral4.166    Bus1=4_165   Bus2=4_166   Length=1    units=m Linecode=Line_95
New Line.Lateral4.167    Bus1=4_166   Bus2=4_167   Length=1    units=m Linecode=Line_95
New Line.Lateral4.168    Bus1=4_167   Bus2=4_168   Length=1    units=m Linecode=Line_95
New Line.Lateral4.169    Bus1=4_168   Bus2=4_169   Length=1    units=m Linecode=Line_95
New Line.Lateral4.170    Bus1=4_169   Bus2=4_170   Length=1    units=m Linecode=Line_95
New Line.Lateral4.171    Bus1=4_170   Bus2=4_171   Length=1    units=m Linecode=Line_95
New Line.Lateral4.172    Bus1=4_171   Bus2=4_172   Length=1    units=m Linecode=Line_95
New Line.Lateral4.173    Bus1=4_172   Bus2=4_173   Length=1    units=m Linecode=Line_95
New Line.Lateral4.174    Bus1=4_173   Bus2=4_174   Length=1    units=m Linecode=Line_95
New Line.Lateral4.175    Bus1=4_174   Bus2=4_175   Length=1    units=m Linecode=Line_95
New Line.Lateral4.176    Bus1=4_175   Bus2=4_176   Length=1    units=m Linecode=Line_95
New Line.Lateral4.177    Bus1=4_176   Bus2=4_177   Length=1    units=m Linecode=Line_95
New Line.Lateral4.178    Bus1=4_177   Bus2=4_178   Length=1    units=m Linecode=Line_95
New Line.Lateral4.179    Bus1=4_178   Bus2=4_179   Length=1    units=m Linecode=Line_95
New Line.Lateral4.180    Bus1=4_179   Bus2=4_180   Length=1    units=m Linecode=Line_95
New Line.Lateral4.181    Bus1=4_180   Bus2=4_181   Length=1    units=m Linecode=Line_95
New Line.Lateral4.182    Bus1=4_181   Bus2=4_182   Length=1    units=m Linecode=Line_95
New Line.Lateral4.183    Bus1=4_182   Bus2=4_183   Length=1    units=m Linecode=Line_95
New Line.Lateral4.184    Bus1=4_183   Bus2=4_184   Length=1    units=m Linecode=Line_95
New Line.Lateral4.185    Bus1=4_184   Bus2=4_185   Length=1    units=m Linecode=Line_95
New Line.Lateral4.186    Bus1=4_185   Bus2=4_186   Length=1    units=m Linecode=Line_95
New Line.Lateral4.187    Bus1=4_186   Bus2=4_187   Length=1    units=m Linecode=Line_95
New Line.Lateral4.188    Bus1=4_187   Bus2=4_188   Length=1    units=m Linecode=Line_95
New Line.Lateral4.189    Bus1=4_188   Bus2=4_189   Length=1    units=m Linecode=Line_95
New Line.Lateral4.190    Bus1=4_189   Bus2=4_190   Length=1    units=m Linecode=Line_95
New Line.Lateral4.191    Bus1=4_190   Bus2=4_191   Length=1    units=m Linecode=Line_95
New Line.Lateral4.192    Bus1=4_191   Bus2=4_192   Length=1    units=m Linecode=Line_95
New Line.Lateral4.193    Bus1=4_192   Bus2=4_193   Length=1    units=m Linecode=Line_95
New Line.Lateral4.194    Bus1=4_193   Bus2=4_194   Length=1    units=m Linecode=Line_95
New Line.Lateral4.195    Bus1=4_194   Bus2=4_195   Length=1    units=m Linecode=Line_95
New Line.Lateral4.196    Bus1=4_195   Bus2=4_196   Length=1    units=m Linecode=Line_95
New Line.Lateral4.197    Bus1=4_196   Bus2=4_197   Length=1    units=m Linecode=Line_95
New Line.Lateral4.198    Bus1=4_197   Bus2=4_198   Length=1    units=m Linecode=Line_95
New Line.Lateral4.199    Bus1=4_198   Bus2=4_199   Length=1    units=m Linecode=Line_95
New Line.Lateral4.200    Bus1=4_199   Bus2=4_200   Length=1    units=m Linecode=Line_95
...
