Networks/RuralDupli/RuralDupli_Consumers1.txt
New Line.Consumer1_1 Bus1=1_76.1 Bus2=Consumer1_1.1 Length=0.04 units=km Linecode=Line_25
New Line.Consumer1_2 Bus1=1_101.2 Bus2=Consumer1_2.1 Length=0.04 units=km Linecode=Line_25
New Line.Consumer1_3 Bus1=1_126.3 Bus2=Consumer1_3.1 Length=0.04 units=km Linecode=Line_25
New Line.Consumer1_4 Bus1=1_151.1 Bus2=Consumer1_4.1 Length=0.04 units=km Linecode=Line_25
New Line.Consumer1_5 Bus1=1_176.2 Bus2=Consumer1_5.1 Length=0.04 units=km Linecode=Line_25
New Line.Consumer1_6 Bus1=1_201.3 Bus2=Consumer1_6.1 Length=0.04 units=km Linecode=Line_25
New Line.Consumer1_7 Bus1=1_226.1 Bus2=Consumer1_7.1 Length=0.04 units=km Linecode=Line_25
New Line.Consumer1_8 Bus1=1_251.2 Bus2=Consumer1_8.1 Length=0.04 units=km Linecode=Line_25
New Line.Consumer1_9 Bus1=1_377.1 Bus2=Consumer1_9.1 Length=0.04 units=km Linecode=Line_25
New Line.Consumer1_10 Bus1=1_402.2 Bus2=Consumer1_10.1 Length=0.04 units=km Linecode=Line_25
New Line.Consumer1_11 Bus1=1_427.3 Bus2=Consumer1_11.1 Length=0.04 units=km Linecode=Line_25
New Line.Consumer1_12 Bus1=1_452.1 Bus2=Consumer1_12.1 Length=0.04 units=km Linecode=Line_25
New Line.Consumer1_13 Bus1=1_477.2 Bus2=Consumer1_13.1 Length=0.04 units=km Linecode=Line_25
New Line.Consumer1_14 Bus1=1_502.3 Bus2=Consumer1_14.1 Length=0.04 units=km Linecode=Line_25
New Line.Consumer1_15 Bus1=1_527.1 Bus2=Consumer1_15.1 Length=0.04 units=km Linecode=Line_25
New Line.Consumer1_16 Bus1=1_552.2 Bus2=Consumer1_16.1 Length=0.04 units=km Linecode=Line_25
New Line.Consumer1_17 Bus1=1_678.1 Bus2=Consumer1_17.1 Length=0.04 units=km Linecode=Line_25
New Line.Consumer1_18 Bus1=1_703.2 Bus2=Consumer1_18.1 Length=0.04 units=km Linecode=Line_25
New Line.Consumer1_19 Bus1=1_728.3 Bus2=Consumer1_19.1 Length=0.04 units=km Linecode=Line_25
New Line.Consumer1_20 Bus1=1_753.1 Bus2=Consumer1_20.1 Length=0.04 units=km Linecode=Line_25
New Line.Consumer1_21 Bus1=1_778.2 Bus2=Consumer1_21.1 Length=0.04 units=km Linecode=Line_25
New Line.Consumer1_22 Bus1=1_803.3 Bus2=Consumer1_22.1 Length=0.04 units=km Linecode=Line_25
New Line.Consumer1_23 Bus1=1_828.1 Bus2=Consumer1_23.1 Length=0.04 units=km Linecode=Line_25
New Line.Consumer1_24 Bus1=1_853.2 Bus2=Consumer1_24.1 Length=0.04 units=km Linecode=Line_25
New Line.Consumer1_25 Bus1=1_976.1 Bus2=Consumer1_25.1 Length=0.04 units=km Linecode=Line_25
New Line.Consumer1_26 Bus1=1_998.2 Bus2=Consumer1_26.1 Length=0.04 units=km Linecode=Line_25
New Line.Consumer1_27 Bus1=1_1020.3 Bus2=Consumer1_27.1 Length=0.04 units=km Linecode=Line_25
New Line.Consumer1_28 Bus1=1_1042.1 Bus2=Consumer1_28.1 Length=0.04 units=km Linecode=Line_25
New Line.Consumer1_29 Bus1=1_1064.2 Bus2=Consumer1_29.1 Length=0.04 units=km Linecode=Line_25
New Line.Consumer1_30 Bus1=1_1086.3 Bus2=Consumer1_30.1 Length=0.04 units=km Linecode=Line_25
New Line.Consumer1_31 Bus1=1_1108.1 Bus2=Consumer1_31.1 Length=0.04 units=km Linecode=Line_25
New Line.Consumer1_32 Bus1=1_1130.2 Bus2=Consumer1_32.1 Length=0.04 units=km Linecode=Line_25
New Line.Consumer1_33 Bus1=1_1152.3 Bus2=Consumer1_33.1 Length=0.04 units=km Linecode=Line_25
