Networks/RuralDupli/RuralDupli_Consumers2.txt
New Line.Consumer2_1 Bus1=2_76.1 Bus2=Consumer2_1.1 Length=0.04 units=km Linecode=Line_25
New Line.Consumer2_2 Bus1=2_101.2 Bus2=Consumer2_2.1 Length=0.04 units=km Linecode=Line_25
New Line.Consumer2_3 Bus1=2_126.3 Bus2=Consumer2_3.1 Length=0.04 units=km Linecode=Line_25
New Line.Consumer2_4 Bus1=2_151.1 Bus2=Consumer2_4.1 Length=0.04 units=km Linecode=Line_25
New Line.Consumer2_5 Bus1=2_176.2 Bus2=Consumer2_5.1 Length=0.04 units=km Linecode=Line_25
New Line.Consumer2_6 Bus1=2_201.3 Bus2=Consumer2_6.1 Length=0.04 units=km Linecode=Line_25
New Line.Consumer2_7 Bus1=2_226.1 Bus2=Consumer2_7.1 Length=0.04 units=km Linecode=Line_25
New Line.Consumer2_8 Bus1=2_251.2 Bus2=Consumer2_8.1 Length=0.04 units=km Linecode=Line_25
New Line.Consumer2_9 Bus1=2_377.1 Bus2=Consumer2_9.1 Length=0.04 units=km Linecode=Line_25
New Line.Consumer2_10 Bus1=2_402.2 Bus2=Consumer2_10.1 Length=0.04 units=km Linecode=Line_25
New Line.Consumer2_11 Bus1=2_427.3 Bus2=Consumer2_11.1 Length=0.04 units=km Linecode=Line_25
New Line.Consumer2_12 Bus1=2_452.1 Bus2=Consumer2_12.1 Length=0.04 units=km Linecode=Line_25
New Line.Consumer2_13 Bus1=2_477.2 Bus2=Consumer2_13.1 Length=0.04 units=km Linecode=Line_25
New Line.Consumer2_14 Bus1=2_502.3 Bus2=Consumer2_14.1 Length=0.04 units=km Linecode=Line_25
New Line.Consumer2_15 Bus1=2_527.1 Bus2=Consumer2_15.1 Length=0.04 units=km Linecode=Line_25
New Line.Consumer2_16 Bus1=2_552.2 Bus2=Consumer2_16.1 Length=0.04 units=km Linecode=Line_25
New Line.Consumer2_17 Bus1=2_678.1 Bus2=Consumer2_17.1 Length=0.04 units=km Linecode=Line_25
New Line.Consumer2_18 Bus1=2_703.2 Bus2=Consumer2_18.1 Length=0.04 units=km Linecode=Line_25
New Line.Consumer2_19 Bus1=2_728.3 Bus2=Consumer2_19.1 Length=0.04 units=km Linecode=Line_25
New Line.Consumer2_20 Bus1=2_753.1 Bus2=Consumer2_20.1 Length=0.04 units=km Linecode=Line_25
New Line.Consumer2_21 Bus1=2_778.2 Bus2=Consumer2_21.1 Length=0.04 units=km Linecode=Line_25
New Line.Consumer2_22 Bus1=2_803.3 Bus2=Consumer2_22.1 Length=0.04 units=km Linecode=Line_25
New Line.Consumer2_23 Bus1=2_828.1 Bus2=Consumer2_23.1 Length=0.04 units=km Linecode=Line_25
New Line.Consumer2_24 Bus1=2_853.2 Bus2=Consumer2_24.1 Length=0.04 units=km Linecode=Line_25
New Line.Consumer2_25 Bus1=2_976.1 Bus2=Consumer2_25.1 Length=0.04 units=km Linecode=Line_25
New Line.Consumer2_26 Bus1=2_998.2 Bus2=Consumer2_26.1 Length=0.04 units=km Linecode=Line_25
New Line.Consumer2_27 Bus1=2_1020.3 Bus2=Consumer2_27.1 Length=0.04 units=km Linecode=Line_25
New Line.Consumer2_28 Bus1=2_1042.1 Bus2=Consumer2_28.1 Length=0.04 units=km Linecode=Line_25
New Line.Consumer2_29 Bus1=2_1064.2 Bus2=Consumer2_29.1 Length=0.04 units=km Linecode=Line_25
New Line.Consumer2_30 Bus1=2_1086.3 Bus2=Consumer2_30.1 Length=0.04 units=km Linecode=Line_25
New Line.Consumer2_31 Bus1=2_1108.1 Bus2=Consumer2_31.1 Length=0.04 units=km Linecode=Line_25
New Line.Consumer2_32 Bus1=2_1130.2 Bus2=Consumer2_32.1 Length=0.04 units=km Linecode=Line_25
New Line.Consumer2_33 Bus1=2_1152.3 Bus2=Consumer2_33.1 Length=0.04 units=km Linecode=Line_25
