Networks/RuralDupli/RuralDupli_Consumers4.txt
New Line.Consumer4_1 Bus1=4_76.1 Bus2=Consumer4_1.1 Length=0.04 units=km Linecode=Line_25
New Line.Consumer4_2 Bus1=4_101.2 Bus2=Consumer4_2.1 Length=0.04 units=km Linecode=Line_25
New Line.Consumer4_3 Bus1=4_126.3 Bus2=Consumer4_3.1 Length=0.04 units=km Linecode=Line_25
New Line.Consumer4_4 Bus1=4_151.1 Bus2=Consumer4_4.1 Length=0.04 units=km Linecode=Line_25
New Line.Consumer4_5 Bus1=4_176.2 Bus2=Consumer4_5.1 Length=0.04 units=km Linecode=Line_25
New Line.Consumer4_6 Bus1=4_201.3 Bus2=Consumer4_6.1 Length=0.04 units=km Linecode=Line_25
New Line.Consumer4_7 Bus1=4_226.1 Bus2=Consumer4_7.1 Length=0.04 units=km Linecode=Line_25
New Line.Consumer4_8 Bus1=4_251.2 Bus2=Consumer4_8.1 Length=0.04 units=km Linecode=Line_25
New Line.Consumer4_9 Bus1=4_377.1 Bus2=Consumer4_9.1 Length=0.04 units=km Linecode=Line_25
New Line.Consumer4_10 Bus1=4_402.2 Bus2=Consumer4_10.1 Length=0.04 units=km Linecode=Line_25
New Line.Consumer4_11 Bus1=4_427.3 Bus2=Consumer4_11.1 Length=0.04 units=km Linecode=Line_25
New Line.Consumer4_12 Bus1=4_452.1 Bus2=Consumer4_12.1 Length=0.04 units=km Linecode=Line_25
New Line.Consumer4_13 Bus1=4_477.2 Bus2=Consumer4_13.1 Length=0.04 units=km Linecode=Line_25
New Line.Consumer4_14 Bus1=4_502.3 Bus2=Consumer4_14.1 Length=0.04 units=km Linecode=Line_25
New Line.Consumer4_15 Bus1=4_527.1 Bus2=Consumer4_15.1 Length=0.04 units=km Linecode=Line_25
New Line.Consumer4_16 Bus1=4_552.2 Bus2=Consumer4_16.1 Length=0.04 units=km Linecode=Line_25
New Line.Consumer4_17 Bus1=4_678.1 Bus2=Consumer4_17.1 Length=0.04 units=km Linecode=Line_25
New Line.Consumer4_18 Bus1=4_703.2 Bus2=Consumer4_18.1 Length=0.04 units=km Linecode=Line_25
New Line.Consumer4_19 Bus1=4_728.3 Bus2=Consumer4_19.1 Length=0.04 units=km Linecode=Line_25
New Line.Consumer4_20 Bus1=4_753.1 Bus2=Consumer4_20.1 Length=0.04 units=km Linecode=Line_25
New Line.Consumer4_21 Bus1=4_778.2 Bus2=Consumer4_21.1 Length=0.04 units=km Linecode=Line_25
New Line.Consumer4_22 Bus1=4_803.3 Bus2=Consumer4_22.1 Length=0.04 units=km Linecode=Line_25
New Line.Consumer4_23 Bus1=4_828.1 Bus2=Consumer4_23.1 Length=0.04 units=km Linecode=Line_25
New Line.Consumer4_24 Bus1=4_853.2 Bus2=Consumer4_24.1 Length=0.04 units=km Linecode=Line_25
New Line.Consumer4_25 Bus1=4_976.1 Bus2=Consumer4_25.1 Length=0.04 units=km Linecode=Line_25
New Line.Consumer4_26 Bus1=4_998.2 Bus2=Consumer4_26.1 Length=0.04 units=km Linecode=Line_25
New Line.Consumer4_27 Bus1=4_1020.3 Bus2=Consumer4_27.1 Length=0.04 units=km Linecode=Line_25
New Line.Consumer4_28 Bus1=4_1042.1 Bus2=Consumer4_28.1 Length=0.04 units=km Linecode=Line_25
New Line.Consumer4_29 Bus1=4_1064.2 Bus2=Consumer4_29.1 Length=0.04 units=km Linecode=Line_25
New Line.Consumer4_30 Bus1=4_1086.3 Bus2=Consumer4_30.1 Length=0.04 units=km Linecode=Line_25
New Line.Consumer4_31 Bus1=4_1108.1 Bus2=Consumer4_31.1 Length=0.04 units=km Linecode=Line_25
New Line.Consumer4_32 Bus1=4_1130.2 Bus2=Consumer4_32.1 Length=0.04 units=km Linecode=Line_25
New Line.Consumer4_33 Bus1=4_1152.3 Bus2=Consumer4_33.1 Length=0.04 units=km Linecode=Line_25
